# generated using pymatgen
data_TaCo2
_symmetry_space_group_name_H-M   'P 1'
_cell_length_a   33.90000000
_cell_length_b   33.90000000
_cell_length_c   33.90000000
_cell_angle_alpha   90.00000000
_cell_angle_beta   90.00000000
_cell_angle_gamma   90.00000000
_symmetry_Int_Tables_number   1
_chemical_formula_structural   TaCo2
_chemical_formula_sum   'Ta1000 Co2000'
_cell_volume   38958.21900000
_cell_formula_units_Z   1000
loop_
 _symmetry_equiv_pos_site_id
 _symmetry_equiv_pos_as_xyz
  1  'x, y, z'
loop_
 _atom_site_type_symbol
 _atom_site_label
 _atom_site_symmetry_multiplicity
 _atom_site_fract_x
 _atom_site_fract_y
 _atom_site_fract_z
 _atom_site_occupancy
  Ta  Ta1  1  0.07500000  0.07500000  0.07500000  1
  Ta  Ta1  1  0.07500000  0.07500000  0.27500000  1
  Ta  Ta1  1  0.07500000  0.07500000  0.47500000  1
  Ta  Ta1  1  0.07500000  0.07500000  0.67500000  1
  Ta  Ta1  1  0.07500000  0.07500000  0.87500000  1
  Ta  Ta1  1  0.07500000  0.27500000  0.07500000  1
  Ta  Ta1  1  0.07500000  0.27500000  0.27500000  1
  Ta  Ta1  1  0.07500000  0.27500000  0.47500000  1
  Ta  Ta1  1  0.07500000  0.27500000  0.67500000  1
  Ta  Ta1  1  0.07500000  0.27500000  0.87500000  1
  Ta  Ta1  1  0.07500000  0.47500000  0.07500000  1
  Ta  Ta1  1  0.07500000  0.47500000  0.27500000  1
  Ta  Ta1  1  0.07500000  0.47500000  0.47500000  1
  Ta  Ta1  1  0.07500000  0.47500000  0.67500000  1
  Ta  Ta1  1  0.07500000  0.47500000  0.87500000  1
  Ta  Ta1  1  0.07500000  0.67500000  0.07500000  1
  Ta  Ta1  1  0.07500000  0.67500000  0.27500000  1
  Ta  Ta1  1  0.07500000  0.67500000  0.47500000  1
  Ta  Ta1  1  0.07500000  0.67500000  0.67500000  1
  Ta  Ta1  1  0.07500000  0.67500000  0.87500000  1
  Ta  Ta1  1  0.07500000  0.87500000  0.07500000  1
  Ta  Ta1  1  0.07500000  0.87500000  0.27500000  1
  Ta  Ta1  1  0.07500000  0.87500000  0.47500000  1
  Ta  Ta1  1  0.07500000  0.87500000  0.67500000  1
  Ta  Ta1  1  0.07500000  0.87500000  0.87500000  1
  Ta  Ta1  1  0.27500000  0.07500000  0.07500000  1
  Ta  Ta1  1  0.27500000  0.07500000  0.27500000  1
  Ta  Ta1  1  0.27500000  0.07500000  0.47500000  1
  Ta  Ta1  1  0.27500000  0.07500000  0.67500000  1
  Ta  Ta1  1  0.27500000  0.07500000  0.87500000  1
  Ta  Ta1  1  0.27500000  0.27500000  0.07500000  1
  Ta  Ta1  1  0.27500000  0.27500000  0.27500000  1
  Ta  Ta1  1  0.27500000  0.27500000  0.47500000  1
  Ta  Ta1  1  0.27500000  0.27500000  0.67500000  1
  Ta  Ta1  1  0.27500000  0.27500000  0.87500000  1
  Ta  Ta1  1  0.27500000  0.47500000  0.07500000  1
  Ta  Ta1  1  0.27500000  0.47500000  0.27500000  1
  Ta  Ta1  1  0.27500000  0.47500000  0.47500000  1
  Ta  Ta1  1  0.27500000  0.47500000  0.67500000  1
  Ta  Ta1  1  0.27500000  0.47500000  0.87500000  1
  Ta  Ta1  1  0.27500000  0.67500000  0.07500000  1
  Ta  Ta1  1  0.27500000  0.67500000  0.27500000  1
  Ta  Ta1  1  0.27500000  0.67500000  0.47500000  1
  Ta  Ta1  1  0.27500000  0.67500000  0.67500000  1
  Ta  Ta1  1  0.27500000  0.67500000  0.87500000  1
  Ta  Ta1  1  0.27500000  0.87500000  0.07500000  1
  Ta  Ta1  1  0.27500000  0.87500000  0.27500000  1
  Ta  Ta1  1  0.27500000  0.87500000  0.47500000  1
  Ta  Ta1  1  0.27500000  0.87500000  0.67500000  1
  Ta  Ta1  1  0.27500000  0.87500000  0.87500000  1
  Ta  Ta1  1  0.47500000  0.07500000  0.07500000  1
  Ta  Ta1  1  0.47500000  0.07500000  0.27500000  1
  Ta  Ta1  1  0.47500000  0.07500000  0.47500000  1
  Ta  Ta1  1  0.47500000  0.07500000  0.67500000  1
  Ta  Ta1  1  0.47500000  0.07500000  0.87500000  1
  Ta  Ta1  1  0.47500000  0.27500000  0.07500000  1
  Ta  Ta1  1  0.47500000  0.27500000  0.27500000  1
  Ta  Ta1  1  0.47500000  0.27500000  0.47500000  1
  Ta  Ta1  1  0.47500000  0.27500000  0.67500000  1
  Ta  Ta1  1  0.47500000  0.27500000  0.87500000  1
  Ta  Ta1  1  0.47500000  0.47500000  0.07500000  1
  Ta  Ta1  1  0.47500000  0.47500000  0.27500000  1
  Ta  Ta1  1  0.47500000  0.47500000  0.47500000  1
  Ta  Ta1  1  0.47500000  0.47500000  0.67500000  1
  Ta  Ta1  1  0.47500000  0.47500000  0.87500000  1
  Ta  Ta1  1  0.47500000  0.67500000  0.07500000  1
  Ta  Ta1  1  0.47500000  0.67500000  0.27500000  1
  Ta  Ta1  1  0.47500000  0.67500000  0.47500000  1
  Ta  Ta1  1  0.47500000  0.67500000  0.67500000  1
  Ta  Ta1  1  0.47500000  0.67500000  0.87500000  1
  Ta  Ta1  1  0.47500000  0.87500000  0.07500000  1
  Ta  Ta1  1  0.47500000  0.87500000  0.27500000  1
  Ta  Ta1  1  0.47500000  0.87500000  0.47500000  1
  Ta  Ta1  1  0.47500000  0.87500000  0.67500000  1
  Ta  Ta1  1  0.47500000  0.87500000  0.87500000  1
  Ta  Ta1  1  0.67500000  0.07500000  0.07500000  1
  Ta  Ta1  1  0.67500000  0.07500000  0.27500000  1
  Ta  Ta1  1  0.67500000  0.07500000  0.47500000  1
  Ta  Ta1  1  0.67500000  0.07500000  0.67500000  1
  Ta  Ta1  1  0.67500000  0.07500000  0.87500000  1
  Ta  Ta1  1  0.67500000  0.27500000  0.07500000  1
  Ta  Ta1  1  0.67500000  0.27500000  0.27500000  1
  Ta  Ta1  1  0.67500000  0.27500000  0.47500000  1
  Ta  Ta1  1  0.67500000  0.27500000  0.67500000  1
  Ta  Ta1  1  0.67500000  0.27500000  0.87500000  1
  Ta  Ta1  1  0.67500000  0.47500000  0.07500000  1
  Ta  Ta1  1  0.67500000  0.47500000  0.27500000  1
  Ta  Ta1  1  0.67500000  0.47500000  0.47500000  1
  Ta  Ta1  1  0.67500000  0.47500000  0.67500000  1
  Ta  Ta1  1  0.67500000  0.47500000  0.87500000  1
  Ta  Ta1  1  0.67500000  0.67500000  0.07500000  1
  Ta  Ta1  1  0.67500000  0.67500000  0.27500000  1
  Ta  Ta1  1  0.67500000  0.67500000  0.47500000  1
  Ta  Ta1  1  0.67500000  0.67500000  0.67500000  1
  Ta  Ta1  1  0.67500000  0.67500000  0.87500000  1
  Ta  Ta1  1  0.67500000  0.87500000  0.07500000  1
  Ta  Ta1  1  0.67500000  0.87500000  0.27500000  1
  Ta  Ta1  1  0.67500000  0.87500000  0.47500000  1
  Ta  Ta1  1  0.67500000  0.87500000  0.67500000  1
  Ta  Ta1  1  0.67500000  0.87500000  0.87500000  1
  Ta  Ta1  1  0.87500000  0.07500000  0.07500000  1
  Ta  Ta1  1  0.87500000  0.07500000  0.27500000  1
  Ta  Ta1  1  0.87500000  0.07500000  0.47500000  1
  Ta  Ta1  1  0.87500000  0.07500000  0.67500000  1
  Ta  Ta1  1  0.87500000  0.07500000  0.87500000  1
  Ta  Ta1  1  0.87500000  0.27500000  0.07500000  1
  Ta  Ta1  1  0.87500000  0.27500000  0.27500000  1
  Ta  Ta1  1  0.87500000  0.27500000  0.47500000  1
  Ta  Ta1  1  0.87500000  0.27500000  0.67500000  1
  Ta  Ta1  1  0.87500000  0.27500000  0.87500000  1
  Ta  Ta1  1  0.87500000  0.47500000  0.07500000  1
  Ta  Ta1  1  0.87500000  0.47500000  0.27500000  1
  Ta  Ta1  1  0.87500000  0.47500000  0.47500000  1
  Ta  Ta1  1  0.87500000  0.47500000  0.67500000  1
  Ta  Ta1  1  0.87500000  0.47500000  0.87500000  1
  Ta  Ta1  1  0.87500000  0.67500000  0.07500000  1
  Ta  Ta1  1  0.87500000  0.67500000  0.27500000  1
  Ta  Ta1  1  0.87500000  0.67500000  0.47500000  1
  Ta  Ta1  1  0.87500000  0.67500000  0.67500000  1
  Ta  Ta1  1  0.87500000  0.67500000  0.87500000  1
  Ta  Ta1  1  0.87500000  0.87500000  0.07500000  1
  Ta  Ta1  1  0.87500000  0.87500000  0.27500000  1
  Ta  Ta1  1  0.87500000  0.87500000  0.47500000  1
  Ta  Ta1  1  0.87500000  0.87500000  0.67500000  1
  Ta  Ta1  1  0.87500000  0.87500000  0.87500000  1
  Ta  Ta1  1  0.12500000  0.12500000  0.12500000  1
  Ta  Ta1  1  0.12500000  0.12500000  0.32500000  1
  Ta  Ta1  1  0.12500000  0.12500000  0.52500000  1
  Ta  Ta1  1  0.12500000  0.12500000  0.72500000  1
  Ta  Ta1  1  0.12500000  0.12500000  0.92500000  1
  Ta  Ta1  1  0.12500000  0.32500000  0.12500000  1
  Ta  Ta1  1  0.12500000  0.32500000  0.32500000  1
  Ta  Ta1  1  0.12500000  0.32500000  0.52500000  1
  Ta  Ta1  1  0.12500000  0.32500000  0.72500000  1
  Ta  Ta1  1  0.12500000  0.32500000  0.92500000  1
  Ta  Ta1  1  0.12500000  0.52500000  0.12500000  1
  Ta  Ta1  1  0.12500000  0.52500000  0.32500000  1
  Ta  Ta1  1  0.12500000  0.52500000  0.52500000  1
  Ta  Ta1  1  0.12500000  0.52500000  0.72500000  1
  Ta  Ta1  1  0.12500000  0.52500000  0.92500000  1
  Ta  Ta1  1  0.12500000  0.72500000  0.12500000  1
  Ta  Ta1  1  0.12500000  0.72500000  0.32500000  1
  Ta  Ta1  1  0.12500000  0.72500000  0.52500000  1
  Ta  Ta1  1  0.12500000  0.72500000  0.72500000  1
  Ta  Ta1  1  0.12500000  0.72500000  0.92500000  1
  Ta  Ta1  1  0.12500000  0.92500000  0.12500000  1
  Ta  Ta1  1  0.12500000  0.92500000  0.32500000  1
  Ta  Ta1  1  0.12500000  0.92500000  0.52500000  1
  Ta  Ta1  1  0.12500000  0.92500000  0.72500000  1
  Ta  Ta1  1  0.12500000  0.92500000  0.92500000  1
  Ta  Ta1  1  0.32500000  0.12500000  0.12500000  1
  Ta  Ta1  1  0.32500000  0.12500000  0.32500000  1
  Ta  Ta1  1  0.32500000  0.12500000  0.52500000  1
  Ta  Ta1  1  0.32500000  0.12500000  0.72500000  1
  Ta  Ta1  1  0.32500000  0.12500000  0.92500000  1
  Ta  Ta1  1  0.32500000  0.32500000  0.12500000  1
  Ta  Ta1  1  0.32500000  0.32500000  0.32500000  1
  Ta  Ta1  1  0.32500000  0.32500000  0.52500000  1
  Ta  Ta1  1  0.32500000  0.32500000  0.72500000  1
  Ta  Ta1  1  0.32500000  0.32500000  0.92500000  1
  Ta  Ta1  1  0.32500000  0.52500000  0.12500000  1
  Ta  Ta1  1  0.32500000  0.52500000  0.32500000  1
  Ta  Ta1  1  0.32500000  0.52500000  0.52500000  1
  Ta  Ta1  1  0.32500000  0.52500000  0.72500000  1
  Ta  Ta1  1  0.32500000  0.52500000  0.92500000  1
  Ta  Ta1  1  0.32500000  0.72500000  0.12500000  1
  Ta  Ta1  1  0.32500000  0.72500000  0.32500000  1
  Ta  Ta1  1  0.32500000  0.72500000  0.52500000  1
  Ta  Ta1  1  0.32500000  0.72500000  0.72500000  1
  Ta  Ta1  1  0.32500000  0.72500000  0.92500000  1
  Ta  Ta1  1  0.32500000  0.92500000  0.12500000  1
  Ta  Ta1  1  0.32500000  0.92500000  0.32500000  1
  Ta  Ta1  1  0.32500000  0.92500000  0.52500000  1
  Ta  Ta1  1  0.32500000  0.92500000  0.72500000  1
  Ta  Ta1  1  0.32500000  0.92500000  0.92500000  1
  Ta  Ta1  1  0.52500000  0.12500000  0.12500000  1
  Ta  Ta1  1  0.52500000  0.12500000  0.32500000  1
  Ta  Ta1  1  0.52500000  0.12500000  0.52500000  1
  Ta  Ta1  1  0.52500000  0.12500000  0.72500000  1
  Ta  Ta1  1  0.52500000  0.12500000  0.92500000  1
  Ta  Ta1  1  0.52500000  0.32500000  0.12500000  1
  Ta  Ta1  1  0.52500000  0.32500000  0.32500000  1
  Ta  Ta1  1  0.52500000  0.32500000  0.52500000  1
  Ta  Ta1  1  0.52500000  0.32500000  0.72500000  1
  Ta  Ta1  1  0.52500000  0.32500000  0.92500000  1
  Ta  Ta1  1  0.52500000  0.52500000  0.12500000  1
  Ta  Ta1  1  0.52500000  0.52500000  0.32500000  1
  Ta  Ta1  1  0.52500000  0.52500000  0.52500000  1
  Ta  Ta1  1  0.52500000  0.52500000  0.72500000  1
  Ta  Ta1  1  0.52500000  0.52500000  0.92500000  1
  Ta  Ta1  1  0.52500000  0.72500000  0.12500000  1
  Ta  Ta1  1  0.52500000  0.72500000  0.32500000  1
  Ta  Ta1  1  0.52500000  0.72500000  0.52500000  1
  Ta  Ta1  1  0.52500000  0.72500000  0.72500000  1
  Ta  Ta1  1  0.52500000  0.72500000  0.92500000  1
  Ta  Ta1  1  0.52500000  0.92500000  0.12500000  1
  Ta  Ta1  1  0.52500000  0.92500000  0.32500000  1
  Ta  Ta1  1  0.52500000  0.92500000  0.52500000  1
  Ta  Ta1  1  0.52500000  0.92500000  0.72500000  1
  Ta  Ta1  1  0.52500000  0.92500000  0.92500000  1
  Ta  Ta1  1  0.72500000  0.12500000  0.12500000  1
  Ta  Ta1  1  0.72500000  0.12500000  0.32500000  1
  Ta  Ta1  1  0.72500000  0.12500000  0.52500000  1
  Ta  Ta1  1  0.72500000  0.12500000  0.72500000  1
  Ta  Ta1  1  0.72500000  0.12500000  0.92500000  1
  Ta  Ta1  1  0.72500000  0.32500000  0.12500000  1
  Ta  Ta1  1  0.72500000  0.32500000  0.32500000  1
  Ta  Ta1  1  0.72500000  0.32500000  0.52500000  1
  Ta  Ta1  1  0.72500000  0.32500000  0.72500000  1
  Ta  Ta1  1  0.72500000  0.32500000  0.92500000  1
  Ta  Ta1  1  0.72500000  0.52500000  0.12500000  1
  Ta  Ta1  1  0.72500000  0.52500000  0.32500000  1
  Ta  Ta1  1  0.72500000  0.52500000  0.52500000  1
  Ta  Ta1  1  0.72500000  0.52500000  0.72500000  1
  Ta  Ta1  1  0.72500000  0.52500000  0.92500000  1
  Ta  Ta1  1  0.72500000  0.72500000  0.12500000  1
  Ta  Ta1  1  0.72500000  0.72500000  0.32500000  1
  Ta  Ta1  1  0.72500000  0.72500000  0.52500000  1
  Ta  Ta1  1  0.72500000  0.72500000  0.72500000  1
  Ta  Ta1  1  0.72500000  0.72500000  0.92500000  1
  Ta  Ta1  1  0.72500000  0.92500000  0.12500000  1
  Ta  Ta1  1  0.72500000  0.92500000  0.32500000  1
  Ta  Ta1  1  0.72500000  0.92500000  0.52500000  1
  Ta  Ta1  1  0.72500000  0.92500000  0.72500000  1
  Ta  Ta1  1  0.72500000  0.92500000  0.92500000  1
  Ta  Ta1  1  0.92500000  0.12500000  0.12500000  1
  Ta  Ta1  1  0.92500000  0.12500000  0.32500000  1
  Ta  Ta1  1  0.92500000  0.12500000  0.52500000  1
  Ta  Ta1  1  0.92500000  0.12500000  0.72500000  1
  Ta  Ta1  1  0.92500000  0.12500000  0.92500000  1
  Ta  Ta1  1  0.92500000  0.32500000  0.12500000  1
  Ta  Ta1  1  0.92500000  0.32500000  0.32500000  1
  Ta  Ta1  1  0.92500000  0.32500000  0.52500000  1
  Ta  Ta1  1  0.92500000  0.32500000  0.72500000  1
  Ta  Ta1  1  0.92500000  0.32500000  0.92500000  1
  Ta  Ta1  1  0.92500000  0.52500000  0.12500000  1
  Ta  Ta1  1  0.92500000  0.52500000  0.32500000  1
  Ta  Ta1  1  0.92500000  0.52500000  0.52500000  1
  Ta  Ta1  1  0.92500000  0.52500000  0.72500000  1
  Ta  Ta1  1  0.92500000  0.52500000  0.92500000  1
  Ta  Ta1  1  0.92500000  0.72500000  0.12500000  1
  Ta  Ta1  1  0.92500000  0.72500000  0.32500000  1
  Ta  Ta1  1  0.92500000  0.72500000  0.52500000  1
  Ta  Ta1  1  0.92500000  0.72500000  0.72500000  1
  Ta  Ta1  1  0.92500000  0.72500000  0.92500000  1
  Ta  Ta1  1  0.92500000  0.92500000  0.12500000  1
  Ta  Ta1  1  0.92500000  0.92500000  0.32500000  1
  Ta  Ta1  1  0.92500000  0.92500000  0.52500000  1
  Ta  Ta1  1  0.92500000  0.92500000  0.72500000  1
  Ta  Ta1  1  0.92500000  0.92500000  0.92500000  1
  Ta  Ta1  1  0.07500000  0.17500000  0.17500000  1
  Ta  Ta1  1  0.07500000  0.17500000  0.37500000  1
  Ta  Ta1  1  0.07500000  0.17500000  0.57500000  1
  Ta  Ta1  1  0.07500000  0.17500000  0.77500000  1
  Ta  Ta1  1  0.07500000  0.17500000  0.97500000  1
  Ta  Ta1  1  0.07500000  0.37500000  0.17500000  1
  Ta  Ta1  1  0.07500000  0.37500000  0.37500000  1
  Ta  Ta1  1  0.07500000  0.37500000  0.57500000  1
  Ta  Ta1  1  0.07500000  0.37500000  0.77500000  1
  Ta  Ta1  1  0.07500000  0.37500000  0.97500000  1
  Ta  Ta1  1  0.07500000  0.57500000  0.17500000  1
  Ta  Ta1  1  0.07500000  0.57500000  0.37500000  1
  Ta  Ta1  1  0.07500000  0.57500000  0.57500000  1
  Ta  Ta1  1  0.07500000  0.57500000  0.77500000  1
  Ta  Ta1  1  0.07500000  0.57500000  0.97500000  1
  Ta  Ta1  1  0.07500000  0.77500000  0.17500000  1
  Ta  Ta1  1  0.07500000  0.77500000  0.37500000  1
  Ta  Ta1  1  0.07500000  0.77500000  0.57500000  1
  Ta  Ta1  1  0.07500000  0.77500000  0.77500000  1
  Ta  Ta1  1  0.07500000  0.77500000  0.97500000  1
  Ta  Ta1  1  0.07500000  0.97500000  0.17500000  1
  Ta  Ta1  1  0.07500000  0.97500000  0.37500000  1
  Ta  Ta1  1  0.07500000  0.97500000  0.57500000  1
  Ta  Ta1  1  0.07500000  0.97500000  0.77500000  1
  Ta  Ta1  1  0.07500000  0.97500000  0.97500000  1
  Ta  Ta1  1  0.27500000  0.17500000  0.17500000  1
  Ta  Ta1  1  0.27500000  0.17500000  0.37500000  1
  Ta  Ta1  1  0.27500000  0.17500000  0.57500000  1
  Ta  Ta1  1  0.27500000  0.17500000  0.77500000  1
  Ta  Ta1  1  0.27500000  0.17500000  0.97500000  1
  Ta  Ta1  1  0.27500000  0.37500000  0.17500000  1
  Ta  Ta1  1  0.27500000  0.37500000  0.37500000  1
  Ta  Ta1  1  0.27500000  0.37500000  0.57500000  1
  Ta  Ta1  1  0.27500000  0.37500000  0.77500000  1
  Ta  Ta1  1  0.27500000  0.37500000  0.97500000  1
  Ta  Ta1  1  0.27500000  0.57500000  0.17500000  1
  Ta  Ta1  1  0.27500000  0.57500000  0.37500000  1
  Ta  Ta1  1  0.27500000  0.57500000  0.57500000  1
  Ta  Ta1  1  0.27500000  0.57500000  0.77500000  1
  Ta  Ta1  1  0.27500000  0.57500000  0.97500000  1
  Ta  Ta1  1  0.27500000  0.77500000  0.17500000  1
  Ta  Ta1  1  0.27500000  0.77500000  0.37500000  1
  Ta  Ta1  1  0.27500000  0.77500000  0.57500000  1
  Ta  Ta1  1  0.27500000  0.77500000  0.77500000  1
  Ta  Ta1  1  0.27500000  0.77500000  0.97500000  1
  Ta  Ta1  1  0.27500000  0.97500000  0.17500000  1
  Ta  Ta1  1  0.27500000  0.97500000  0.37500000  1
  Ta  Ta1  1  0.27500000  0.97500000  0.57500000  1
  Ta  Ta1  1  0.27500000  0.97500000  0.77500000  1
  Ta  Ta1  1  0.27500000  0.97500000  0.97500000  1
  Ta  Ta1  1  0.47500000  0.17500000  0.17500000  1
  Ta  Ta1  1  0.47500000  0.17500000  0.37500000  1
  Ta  Ta1  1  0.47500000  0.17500000  0.57500000  1
  Ta  Ta1  1  0.47500000  0.17500000  0.77500000  1
  Ta  Ta1  1  0.47500000  0.17500000  0.97500000  1
  Ta  Ta1  1  0.47500000  0.37500000  0.17500000  1
  Ta  Ta1  1  0.47500000  0.37500000  0.37500000  1
  Ta  Ta1  1  0.47500000  0.37500000  0.57500000  1
  Ta  Ta1  1  0.47500000  0.37500000  0.77500000  1
  Ta  Ta1  1  0.47500000  0.37500000  0.97500000  1
  Ta  Ta1  1  0.47500000  0.57500000  0.17500000  1
  Ta  Ta1  1  0.47500000  0.57500000  0.37500000  1
  Ta  Ta1  1  0.47500000  0.57500000  0.57500000  1
  Ta  Ta1  1  0.47500000  0.57500000  0.77500000  1
  Ta  Ta1  1  0.47500000  0.57500000  0.97500000  1
  Ta  Ta1  1  0.47500000  0.77500000  0.17500000  1
  Ta  Ta1  1  0.47500000  0.77500000  0.37500000  1
  Ta  Ta1  1  0.47500000  0.77500000  0.57500000  1
  Ta  Ta1  1  0.47500000  0.77500000  0.77500000  1
  Ta  Ta1  1  0.47500000  0.77500000  0.97500000  1
  Ta  Ta1  1  0.47500000  0.97500000  0.17500000  1
  Ta  Ta1  1  0.47500000  0.97500000  0.37500000  1
  Ta  Ta1  1  0.47500000  0.97500000  0.57500000  1
  Ta  Ta1  1  0.47500000  0.97500000  0.77500000  1
  Ta  Ta1  1  0.47500000  0.97500000  0.97500000  1
  Ta  Ta1  1  0.67500000  0.17500000  0.17500000  1
  Ta  Ta1  1  0.67500000  0.17500000  0.37500000  1
  Ta  Ta1  1  0.67500000  0.17500000  0.57500000  1
  Ta  Ta1  1  0.67500000  0.17500000  0.77500000  1
  Ta  Ta1  1  0.67500000  0.17500000  0.97500000  1
  Ta  Ta1  1  0.67500000  0.37500000  0.17500000  1
  Ta  Ta1  1  0.67500000  0.37500000  0.37500000  1
  Ta  Ta1  1  0.67500000  0.37500000  0.57500000  1
  Ta  Ta1  1  0.67500000  0.37500000  0.77500000  1
  Ta  Ta1  1  0.67500000  0.37500000  0.97500000  1
  Ta  Ta1  1  0.67500000  0.57500000  0.17500000  1
  Ta  Ta1  1  0.67500000  0.57500000  0.37500000  1
  Ta  Ta1  1  0.67500000  0.57500000  0.57500000  1
  Ta  Ta1  1  0.67500000  0.57500000  0.77500000  1
  Ta  Ta1  1  0.67500000  0.57500000  0.97500000  1
  Ta  Ta1  1  0.67500000  0.77500000  0.17500000  1
  Ta  Ta1  1  0.67500000  0.77500000  0.37500000  1
  Ta  Ta1  1  0.67500000  0.77500000  0.57500000  1
  Ta  Ta1  1  0.67500000  0.77500000  0.77500000  1
  Ta  Ta1  1  0.67500000  0.77500000  0.97500000  1
  Ta  Ta1  1  0.67500000  0.97500000  0.17500000  1
  Ta  Ta1  1  0.67500000  0.97500000  0.37500000  1
  Ta  Ta1  1  0.67500000  0.97500000  0.57500000  1
  Ta  Ta1  1  0.67500000  0.97500000  0.77500000  1
  Ta  Ta1  1  0.67500000  0.97500000  0.97500000  1
  Ta  Ta1  1  0.87500000  0.17500000  0.17500000  1
  Ta  Ta1  1  0.87500000  0.17500000  0.37500000  1
  Ta  Ta1  1  0.87500000  0.17500000  0.57500000  1
  Ta  Ta1  1  0.87500000  0.17500000  0.77500000  1
  Ta  Ta1  1  0.87500000  0.17500000  0.97500000  1
  Ta  Ta1  1  0.87500000  0.37500000  0.17500000  1
  Ta  Ta1  1  0.87500000  0.37500000  0.37500000  1
  Ta  Ta1  1  0.87500000  0.37500000  0.57500000  1
  Ta  Ta1  1  0.87500000  0.37500000  0.77500000  1
  Ta  Ta1  1  0.87500000  0.37500000  0.97500000  1
  Ta  Ta1  1  0.87500000  0.57500000  0.17500000  1
  Ta  Ta1  1  0.87500000  0.57500000  0.37500000  1
  Ta  Ta1  1  0.87500000  0.57500000  0.57500000  1
  Ta  Ta1  1  0.87500000  0.57500000  0.77500000  1
  Ta  Ta1  1  0.87500000  0.57500000  0.97500000  1
  Ta  Ta1  1  0.87500000  0.77500000  0.17500000  1
  Ta  Ta1  1  0.87500000  0.77500000  0.37500000  1
  Ta  Ta1  1  0.87500000  0.77500000  0.57500000  1
  Ta  Ta1  1  0.87500000  0.77500000  0.77500000  1
  Ta  Ta1  1  0.87500000  0.77500000  0.97500000  1
  Ta  Ta1  1  0.87500000  0.97500000  0.17500000  1
  Ta  Ta1  1  0.87500000  0.97500000  0.37500000  1
  Ta  Ta1  1  0.87500000  0.97500000  0.57500000  1
  Ta  Ta1  1  0.87500000  0.97500000  0.77500000  1
  Ta  Ta1  1  0.87500000  0.97500000  0.97500000  1
  Ta  Ta1  1  0.02500000  0.12500000  0.02500000  1
  Ta  Ta1  1  0.02500000  0.12500000  0.22500000  1
  Ta  Ta1  1  0.02500000  0.12500000  0.42500000  1
  Ta  Ta1  1  0.02500000  0.12500000  0.62500000  1
  Ta  Ta1  1  0.02500000  0.12500000  0.82500000  1
  Ta  Ta1  1  0.02500000  0.32500000  0.02500000  1
  Ta  Ta1  1  0.02500000  0.32500000  0.22500000  1
  Ta  Ta1  1  0.02500000  0.32500000  0.42500000  1
  Ta  Ta1  1  0.02500000  0.32500000  0.62500000  1
  Ta  Ta1  1  0.02500000  0.32500000  0.82500000  1
  Ta  Ta1  1  0.02500000  0.52500000  0.02500000  1
  Ta  Ta1  1  0.02500000  0.52500000  0.22500000  1
  Ta  Ta1  1  0.02500000  0.52500000  0.42500000  1
  Ta  Ta1  1  0.02500000  0.52500000  0.62500000  1
  Ta  Ta1  1  0.02500000  0.52500000  0.82500000  1
  Ta  Ta1  1  0.02500000  0.72500000  0.02500000  1
  Ta  Ta1  1  0.02500000  0.72500000  0.22500000  1
  Ta  Ta1  1  0.02500000  0.72500000  0.42500000  1
  Ta  Ta1  1  0.02500000  0.72500000  0.62500000  1
  Ta  Ta1  1  0.02500000  0.72500000  0.82500000  1
  Ta  Ta1  1  0.02500000  0.92500000  0.02500000  1
  Ta  Ta1  1  0.02500000  0.92500000  0.22500000  1
  Ta  Ta1  1  0.02500000  0.92500000  0.42500000  1
  Ta  Ta1  1  0.02500000  0.92500000  0.62500000  1
  Ta  Ta1  1  0.02500000  0.92500000  0.82500000  1
  Ta  Ta1  1  0.22500000  0.12500000  0.02500000  1
  Ta  Ta1  1  0.22500000  0.12500000  0.22500000  1
  Ta  Ta1  1  0.22500000  0.12500000  0.42500000  1
  Ta  Ta1  1  0.22500000  0.12500000  0.62500000  1
  Ta  Ta1  1  0.22500000  0.12500000  0.82500000  1
  Ta  Ta1  1  0.22500000  0.32500000  0.02500000  1
  Ta  Ta1  1  0.22500000  0.32500000  0.22500000  1
  Ta  Ta1  1  0.22500000  0.32500000  0.42500000  1
  Ta  Ta1  1  0.22500000  0.32500000  0.62500000  1
  Ta  Ta1  1  0.22500000  0.32500000  0.82500000  1
  Ta  Ta1  1  0.22500000  0.52500000  0.02500000  1
  Ta  Ta1  1  0.22500000  0.52500000  0.22500000  1
  Ta  Ta1  1  0.22500000  0.52500000  0.42500000  1
  Ta  Ta1  1  0.22500000  0.52500000  0.62500000  1
  Ta  Ta1  1  0.22500000  0.52500000  0.82500000  1
  Ta  Ta1  1  0.22500000  0.72500000  0.02500000  1
  Ta  Ta1  1  0.22500000  0.72500000  0.22500000  1
  Ta  Ta1  1  0.22500000  0.72500000  0.42500000  1
  Ta  Ta1  1  0.22500000  0.72500000  0.62500000  1
  Ta  Ta1  1  0.22500000  0.72500000  0.82500000  1
  Ta  Ta1  1  0.22500000  0.92500000  0.02500000  1
  Ta  Ta1  1  0.22500000  0.92500000  0.22500000  1
  Ta  Ta1  1  0.22500000  0.92500000  0.42500000  1
  Ta  Ta1  1  0.22500000  0.92500000  0.62500000  1
  Ta  Ta1  1  0.22500000  0.92500000  0.82500000  1
  Ta  Ta1  1  0.42500000  0.12500000  0.02500000  1
  Ta  Ta1  1  0.42500000  0.12500000  0.22500000  1
  Ta  Ta1  1  0.42500000  0.12500000  0.42500000  1
  Ta  Ta1  1  0.42500000  0.12500000  0.62500000  1
  Ta  Ta1  1  0.42500000  0.12500000  0.82500000  1
  Ta  Ta1  1  0.42500000  0.32500000  0.02500000  1
  Ta  Ta1  1  0.42500000  0.32500000  0.22500000  1
  Ta  Ta1  1  0.42500000  0.32500000  0.42500000  1
  Ta  Ta1  1  0.42500000  0.32500000  0.62500000  1
  Ta  Ta1  1  0.42500000  0.32500000  0.82500000  1
  Ta  Ta1  1  0.42500000  0.52500000  0.02500000  1
  Ta  Ta1  1  0.42500000  0.52500000  0.22500000  1
  Ta  Ta1  1  0.42500000  0.52500000  0.42500000  1
  Ta  Ta1  1  0.42500000  0.52500000  0.62500000  1
  Ta  Ta1  1  0.42500000  0.52500000  0.82500000  1
  Ta  Ta1  1  0.42500000  0.72500000  0.02500000  1
  Ta  Ta1  1  0.42500000  0.72500000  0.22500000  1
  Ta  Ta1  1  0.42500000  0.72500000  0.42500000  1
  Ta  Ta1  1  0.42500000  0.72500000  0.62500000  1
  Ta  Ta1  1  0.42500000  0.72500000  0.82500000  1
  Ta  Ta1  1  0.42500000  0.92500000  0.02500000  1
  Ta  Ta1  1  0.42500000  0.92500000  0.22500000  1
  Ta  Ta1  1  0.42500000  0.92500000  0.42500000  1
  Ta  Ta1  1  0.42500000  0.92500000  0.62500000  1
  Ta  Ta1  1  0.42500000  0.92500000  0.82500000  1
  Ta  Ta1  1  0.62500000  0.12500000  0.02500000  1
  Ta  Ta1  1  0.62500000  0.12500000  0.22500000  1
  Ta  Ta1  1  0.62500000  0.12500000  0.42500000  1
  Ta  Ta1  1  0.62500000  0.12500000  0.62500000  1
  Ta  Ta1  1  0.62500000  0.12500000  0.82500000  1
  Ta  Ta1  1  0.62500000  0.32500000  0.02500000  1
  Ta  Ta1  1  0.62500000  0.32500000  0.22500000  1
  Ta  Ta1  1  0.62500000  0.32500000  0.42500000  1
  Ta  Ta1  1  0.62500000  0.32500000  0.62500000  1
  Ta  Ta1  1  0.62500000  0.32500000  0.82500000  1
  Ta  Ta1  1  0.62500000  0.52500000  0.02500000  1
  Ta  Ta1  1  0.62500000  0.52500000  0.22500000  1
  Ta  Ta1  1  0.62500000  0.52500000  0.42500000  1
  Ta  Ta1  1  0.62500000  0.52500000  0.62500000  1
  Ta  Ta1  1  0.62500000  0.52500000  0.82500000  1
  Ta  Ta1  1  0.62500000  0.72500000  0.02500000  1
  Ta  Ta1  1  0.62500000  0.72500000  0.22500000  1
  Ta  Ta1  1  0.62500000  0.72500000  0.42500000  1
  Ta  Ta1  1  0.62500000  0.72500000  0.62500000  1
  Ta  Ta1  1  0.62500000  0.72500000  0.82500000  1
  Ta  Ta1  1  0.62500000  0.92500000  0.02500000  1
  Ta  Ta1  1  0.62500000  0.92500000  0.22500000  1
  Ta  Ta1  1  0.62500000  0.92500000  0.42500000  1
  Ta  Ta1  1  0.62500000  0.92500000  0.62500000  1
  Ta  Ta1  1  0.62500000  0.92500000  0.82500000  1
  Ta  Ta1  1  0.82500000  0.12500000  0.02500000  1
  Ta  Ta1  1  0.82500000  0.12500000  0.22500000  1
  Ta  Ta1  1  0.82500000  0.12500000  0.42500000  1
  Ta  Ta1  1  0.82500000  0.12500000  0.62500000  1
  Ta  Ta1  1  0.82500000  0.12500000  0.82500000  1
  Ta  Ta1  1  0.82500000  0.32500000  0.02500000  1
  Ta  Ta1  1  0.82500000  0.32500000  0.22500000  1
  Ta  Ta1  1  0.82500000  0.32500000  0.42500000  1
  Ta  Ta1  1  0.82500000  0.32500000  0.62500000  1
  Ta  Ta1  1  0.82500000  0.32500000  0.82500000  1
  Ta  Ta1  1  0.82500000  0.52500000  0.02500000  1
  Ta  Ta1  1  0.82500000  0.52500000  0.22500000  1
  Ta  Ta1  1  0.82500000  0.52500000  0.42500000  1
  Ta  Ta1  1  0.82500000  0.52500000  0.62500000  1
  Ta  Ta1  1  0.82500000  0.52500000  0.82500000  1
  Ta  Ta1  1  0.82500000  0.72500000  0.02500000  1
  Ta  Ta1  1  0.82500000  0.72500000  0.22500000  1
  Ta  Ta1  1  0.82500000  0.72500000  0.42500000  1
  Ta  Ta1  1  0.82500000  0.72500000  0.62500000  1
  Ta  Ta1  1  0.82500000  0.72500000  0.82500000  1
  Ta  Ta1  1  0.82500000  0.92500000  0.02500000  1
  Ta  Ta1  1  0.82500000  0.92500000  0.22500000  1
  Ta  Ta1  1  0.82500000  0.92500000  0.42500000  1
  Ta  Ta1  1  0.82500000  0.92500000  0.62500000  1
  Ta  Ta1  1  0.82500000  0.92500000  0.82500000  1
  Ta  Ta1  1  0.17500000  0.07500000  0.17500000  1
  Ta  Ta1  1  0.17500000  0.07500000  0.37500000  1
  Ta  Ta1  1  0.17500000  0.07500000  0.57500000  1
  Ta  Ta1  1  0.17500000  0.07500000  0.77500000  1
  Ta  Ta1  1  0.17500000  0.07500000  0.97500000  1
  Ta  Ta1  1  0.17500000  0.27500000  0.17500000  1
  Ta  Ta1  1  0.17500000  0.27500000  0.37500000  1
  Ta  Ta1  1  0.17500000  0.27500000  0.57500000  1
  Ta  Ta1  1  0.17500000  0.27500000  0.77500000  1
  Ta  Ta1  1  0.17500000  0.27500000  0.97500000  1
  Ta  Ta1  1  0.17500000  0.47500000  0.17500000  1
  Ta  Ta1  1  0.17500000  0.47500000  0.37500000  1
  Ta  Ta1  1  0.17500000  0.47500000  0.57500000  1
  Ta  Ta1  1  0.17500000  0.47500000  0.77500000  1
  Ta  Ta1  1  0.17500000  0.47500000  0.97500000  1
  Ta  Ta1  1  0.17500000  0.67500000  0.17500000  1
  Ta  Ta1  1  0.17500000  0.67500000  0.37500000  1
  Ta  Ta1  1  0.17500000  0.67500000  0.57500000  1
  Ta  Ta1  1  0.17500000  0.67500000  0.77500000  1
  Ta  Ta1  1  0.17500000  0.67500000  0.97500000  1
  Ta  Ta1  1  0.17500000  0.87500000  0.17500000  1
  Ta  Ta1  1  0.17500000  0.87500000  0.37500000  1
  Ta  Ta1  1  0.17500000  0.87500000  0.57500000  1
  Ta  Ta1  1  0.17500000  0.87500000  0.77500000  1
  Ta  Ta1  1  0.17500000  0.87500000  0.97500000  1
  Ta  Ta1  1  0.37500000  0.07500000  0.17500000  1
  Ta  Ta1  1  0.37500000  0.07500000  0.37500000  1
  Ta  Ta1  1  0.37500000  0.07500000  0.57500000  1
  Ta  Ta1  1  0.37500000  0.07500000  0.77500000  1
  Ta  Ta1  1  0.37500000  0.07500000  0.97500000  1
  Ta  Ta1  1  0.37500000  0.27500000  0.17500000  1
  Ta  Ta1  1  0.37500000  0.27500000  0.37500000  1
  Ta  Ta1  1  0.37500000  0.27500000  0.57500000  1
  Ta  Ta1  1  0.37500000  0.27500000  0.77500000  1
  Ta  Ta1  1  0.37500000  0.27500000  0.97500000  1
  Ta  Ta1  1  0.37500000  0.47500000  0.17500000  1
  Ta  Ta1  1  0.37500000  0.47500000  0.37500000  1
  Ta  Ta1  1  0.37500000  0.47500000  0.57500000  1
  Ta  Ta1  1  0.37500000  0.47500000  0.77500000  1
  Ta  Ta1  1  0.37500000  0.47500000  0.97500000  1
  Ta  Ta1  1  0.37500000  0.67500000  0.17500000  1
  Ta  Ta1  1  0.37500000  0.67500000  0.37500000  1
  Ta  Ta1  1  0.37500000  0.67500000  0.57500000  1
  Ta  Ta1  1  0.37500000  0.67500000  0.77500000  1
  Ta  Ta1  1  0.37500000  0.67500000  0.97500000  1
  Ta  Ta1  1  0.37500000  0.87500000  0.17500000  1
  Ta  Ta1  1  0.37500000  0.87500000  0.37500000  1
  Ta  Ta1  1  0.37500000  0.87500000  0.57500000  1
  Ta  Ta1  1  0.37500000  0.87500000  0.77500000  1
  Ta  Ta1  1  0.37500000  0.87500000  0.97500000  1
  Ta  Ta1  1  0.57500000  0.07500000  0.17500000  1
  Ta  Ta1  1  0.57500000  0.07500000  0.37500000  1
  Ta  Ta1  1  0.57500000  0.07500000  0.57500000  1
  Ta  Ta1  1  0.57500000  0.07500000  0.77500000  1
  Ta  Ta1  1  0.57500000  0.07500000  0.97500000  1
  Ta  Ta1  1  0.57500000  0.27500000  0.17500000  1
  Ta  Ta1  1  0.57500000  0.27500000  0.37500000  1
  Ta  Ta1  1  0.57500000  0.27500000  0.57500000  1
  Ta  Ta1  1  0.57500000  0.27500000  0.77500000  1
  Ta  Ta1  1  0.57500000  0.27500000  0.97500000  1
  Ta  Ta1  1  0.57500000  0.47500000  0.17500000  1
  Ta  Ta1  1  0.57500000  0.47500000  0.37500000  1
  Ta  Ta1  1  0.57500000  0.47500000  0.57500000  1
  Ta  Ta1  1  0.57500000  0.47500000  0.77500000  1
  Ta  Ta1  1  0.57500000  0.47500000  0.97500000  1
  Ta  Ta1  1  0.57500000  0.67500000  0.17500000  1
  Ta  Ta1  1  0.57500000  0.67500000  0.37500000  1
  Ta  Ta1  1  0.57500000  0.67500000  0.57500000  1
  Ta  Ta1  1  0.57500000  0.67500000  0.77500000  1
  Ta  Ta1  1  0.57500000  0.67500000  0.97500000  1
  Ta  Ta1  1  0.57500000  0.87500000  0.17500000  1
  Ta  Ta1  1  0.57500000  0.87500000  0.37500000  1
  Ta  Ta1  1  0.57500000  0.87500000  0.57500000  1
  Ta  Ta1  1  0.57500000  0.87500000  0.77500000  1
  Ta  Ta1  1  0.57500000  0.87500000  0.97500000  1
  Ta  Ta1  1  0.77500000  0.07500000  0.17500000  1
  Ta  Ta1  1  0.77500000  0.07500000  0.37500000  1
  Ta  Ta1  1  0.77500000  0.07500000  0.57500000  1
  Ta  Ta1  1  0.77500000  0.07500000  0.77500000  1
  Ta  Ta1  1  0.77500000  0.07500000  0.97500000  1
  Ta  Ta1  1  0.77500000  0.27500000  0.17500000  1
  Ta  Ta1  1  0.77500000  0.27500000  0.37500000  1
  Ta  Ta1  1  0.77500000  0.27500000  0.57500000  1
  Ta  Ta1  1  0.77500000  0.27500000  0.77500000  1
  Ta  Ta1  1  0.77500000  0.27500000  0.97500000  1
  Ta  Ta1  1  0.77500000  0.47500000  0.17500000  1
  Ta  Ta1  1  0.77500000  0.47500000  0.37500000  1
  Ta  Ta1  1  0.77500000  0.47500000  0.57500000  1
  Ta  Ta1  1  0.77500000  0.47500000  0.77500000  1
  Ta  Ta1  1  0.77500000  0.47500000  0.97500000  1
  Ta  Ta1  1  0.77500000  0.67500000  0.17500000  1
  Ta  Ta1  1  0.77500000  0.67500000  0.37500000  1
  Ta  Ta1  1  0.77500000  0.67500000  0.57500000  1
  Ta  Ta1  1  0.77500000  0.67500000  0.77500000  1
  Ta  Ta1  1  0.77500000  0.67500000  0.97500000  1
  Ta  Ta1  1  0.77500000  0.87500000  0.17500000  1
  Ta  Ta1  1  0.77500000  0.87500000  0.37500000  1
  Ta  Ta1  1  0.77500000  0.87500000  0.57500000  1
  Ta  Ta1  1  0.77500000  0.87500000  0.77500000  1
  Ta  Ta1  1  0.77500000  0.87500000  0.97500000  1
  Ta  Ta1  1  0.97500000  0.07500000  0.17500000  1
  Ta  Ta1  1  0.97500000  0.07500000  0.37500000  1
  Ta  Ta1  1  0.97500000  0.07500000  0.57500000  1
  Ta  Ta1  1  0.97500000  0.07500000  0.77500000  1
  Ta  Ta1  1  0.97500000  0.07500000  0.97500000  1
  Ta  Ta1  1  0.97500000  0.27500000  0.17500000  1
  Ta  Ta1  1  0.97500000  0.27500000  0.37500000  1
  Ta  Ta1  1  0.97500000  0.27500000  0.57500000  1
  Ta  Ta1  1  0.97500000  0.27500000  0.77500000  1
  Ta  Ta1  1  0.97500000  0.27500000  0.97500000  1
  Ta  Ta1  1  0.97500000  0.47500000  0.17500000  1
  Ta  Ta1  1  0.97500000  0.47500000  0.37500000  1
  Ta  Ta1  1  0.97500000  0.47500000  0.57500000  1
  Ta  Ta1  1  0.97500000  0.47500000  0.77500000  1
  Ta  Ta1  1  0.97500000  0.47500000  0.97500000  1
  Ta  Ta1  1  0.97500000  0.67500000  0.17500000  1
  Ta  Ta1  1  0.97500000  0.67500000  0.37500000  1
  Ta  Ta1  1  0.97500000  0.67500000  0.57500000  1
  Ta  Ta1  1  0.97500000  0.67500000  0.77500000  1
  Ta  Ta1  1  0.97500000  0.67500000  0.97500000  1
  Ta  Ta1  1  0.97500000  0.87500000  0.17500000  1
  Ta  Ta1  1  0.97500000  0.87500000  0.37500000  1
  Ta  Ta1  1  0.97500000  0.87500000  0.57500000  1
  Ta  Ta1  1  0.97500000  0.87500000  0.77500000  1
  Ta  Ta1  1  0.97500000  0.87500000  0.97500000  1
  Ta  Ta1  1  0.12500000  0.02500000  0.02500000  1
  Ta  Ta1  1  0.12500000  0.02500000  0.22500000  1
  Ta  Ta1  1  0.12500000  0.02500000  0.42500000  1
  Ta  Ta1  1  0.12500000  0.02500000  0.62500000  1
  Ta  Ta1  1  0.12500000  0.02500000  0.82500000  1
  Ta  Ta1  1  0.12500000  0.22500000  0.02500000  1
  Ta  Ta1  1  0.12500000  0.22500000  0.22500000  1
  Ta  Ta1  1  0.12500000  0.22500000  0.42500000  1
  Ta  Ta1  1  0.12500000  0.22500000  0.62500000  1
  Ta  Ta1  1  0.12500000  0.22500000  0.82500000  1
  Ta  Ta1  1  0.12500000  0.42500000  0.02500000  1
  Ta  Ta1  1  0.12500000  0.42500000  0.22500000  1
  Ta  Ta1  1  0.12500000  0.42500000  0.42500000  1
  Ta  Ta1  1  0.12500000  0.42500000  0.62500000  1
  Ta  Ta1  1  0.12500000  0.42500000  0.82500000  1
  Ta  Ta1  1  0.12500000  0.62500000  0.02500000  1
  Ta  Ta1  1  0.12500000  0.62500000  0.22500000  1
  Ta  Ta1  1  0.12500000  0.62500000  0.42500000  1
  Ta  Ta1  1  0.12500000  0.62500000  0.62500000  1
  Ta  Ta1  1  0.12500000  0.62500000  0.82500000  1
  Ta  Ta1  1  0.12500000  0.82500000  0.02500000  1
  Ta  Ta1  1  0.12500000  0.82500000  0.22500000  1
  Ta  Ta1  1  0.12500000  0.82500000  0.42500000  1
  Ta  Ta1  1  0.12500000  0.82500000  0.62500000  1
  Ta  Ta1  1  0.12500000  0.82500000  0.82500000  1
  Ta  Ta1  1  0.32500000  0.02500000  0.02500000  1
  Ta  Ta1  1  0.32500000  0.02500000  0.22500000  1
  Ta  Ta1  1  0.32500000  0.02500000  0.42500000  1
  Ta  Ta1  1  0.32500000  0.02500000  0.62500000  1
  Ta  Ta1  1  0.32500000  0.02500000  0.82500000  1
  Ta  Ta1  1  0.32500000  0.22500000  0.02500000  1
  Ta  Ta1  1  0.32500000  0.22500000  0.22500000  1
  Ta  Ta1  1  0.32500000  0.22500000  0.42500000  1
  Ta  Ta1  1  0.32500000  0.22500000  0.62500000  1
  Ta  Ta1  1  0.32500000  0.22500000  0.82500000  1
  Ta  Ta1  1  0.32500000  0.42500000  0.02500000  1
  Ta  Ta1  1  0.32500000  0.42500000  0.22500000  1
  Ta  Ta1  1  0.32500000  0.42500000  0.42500000  1
  Ta  Ta1  1  0.32500000  0.42500000  0.62500000  1
  Ta  Ta1  1  0.32500000  0.42500000  0.82500000  1
  Ta  Ta1  1  0.32500000  0.62500000  0.02500000  1
  Ta  Ta1  1  0.32500000  0.62500000  0.22500000  1
  Ta  Ta1  1  0.32500000  0.62500000  0.42500000  1
  Ta  Ta1  1  0.32500000  0.62500000  0.62500000  1
  Ta  Ta1  1  0.32500000  0.62500000  0.82500000  1
  Ta  Ta1  1  0.32500000  0.82500000  0.02500000  1
  Ta  Ta1  1  0.32500000  0.82500000  0.22500000  1
  Ta  Ta1  1  0.32500000  0.82500000  0.42500000  1
  Ta  Ta1  1  0.32500000  0.82500000  0.62500000  1
  Ta  Ta1  1  0.32500000  0.82500000  0.82500000  1
  Ta  Ta1  1  0.52500000  0.02500000  0.02500000  1
  Ta  Ta1  1  0.52500000  0.02500000  0.22500000  1
  Ta  Ta1  1  0.52500000  0.02500000  0.42500000  1
  Ta  Ta1  1  0.52500000  0.02500000  0.62500000  1
  Ta  Ta1  1  0.52500000  0.02500000  0.82500000  1
  Ta  Ta1  1  0.52500000  0.22500000  0.02500000  1
  Ta  Ta1  1  0.52500000  0.22500000  0.22500000  1
  Ta  Ta1  1  0.52500000  0.22500000  0.42500000  1
  Ta  Ta1  1  0.52500000  0.22500000  0.62500000  1
  Ta  Ta1  1  0.52500000  0.22500000  0.82500000  1
  Ta  Ta1  1  0.52500000  0.42500000  0.02500000  1
  Ta  Ta1  1  0.52500000  0.42500000  0.22500000  1
  Ta  Ta1  1  0.52500000  0.42500000  0.42500000  1
  Ta  Ta1  1  0.52500000  0.42500000  0.62500000  1
  Ta  Ta1  1  0.52500000  0.42500000  0.82500000  1
  Ta  Ta1  1  0.52500000  0.62500000  0.02500000  1
  Ta  Ta1  1  0.52500000  0.62500000  0.22500000  1
  Ta  Ta1  1  0.52500000  0.62500000  0.42500000  1
  Ta  Ta1  1  0.52500000  0.62500000  0.62500000  1
  Ta  Ta1  1  0.52500000  0.62500000  0.82500000  1
  Ta  Ta1  1  0.52500000  0.82500000  0.02500000  1
  Ta  Ta1  1  0.52500000  0.82500000  0.22500000  1
  Ta  Ta1  1  0.52500000  0.82500000  0.42500000  1
  Ta  Ta1  1  0.52500000  0.82500000  0.62500000  1
  Ta  Ta1  1  0.52500000  0.82500000  0.82500000  1
  Ta  Ta1  1  0.72500000  0.02500000  0.02500000  1
  Ta  Ta1  1  0.72500000  0.02500000  0.22500000  1
  Ta  Ta1  1  0.72500000  0.02500000  0.42500000  1
  Ta  Ta1  1  0.72500000  0.02500000  0.62500000  1
  Ta  Ta1  1  0.72500000  0.02500000  0.82500000  1
  Ta  Ta1  1  0.72500000  0.22500000  0.02500000  1
  Ta  Ta1  1  0.72500000  0.22500000  0.22500000  1
  Ta  Ta1  1  0.72500000  0.22500000  0.42500000  1
  Ta  Ta1  1  0.72500000  0.22500000  0.62500000  1
  Ta  Ta1  1  0.72500000  0.22500000  0.82500000  1
  Ta  Ta1  1  0.72500000  0.42500000  0.02500000  1
  Ta  Ta1  1  0.72500000  0.42500000  0.22500000  1
  Ta  Ta1  1  0.72500000  0.42500000  0.42500000  1
  Ta  Ta1  1  0.72500000  0.42500000  0.62500000  1
  Ta  Ta1  1  0.72500000  0.42500000  0.82500000  1
  Ta  Ta1  1  0.72500000  0.62500000  0.02500000  1
  Ta  Ta1  1  0.72500000  0.62500000  0.22500000  1
  Ta  Ta1  1  0.72500000  0.62500000  0.42500000  1
  Ta  Ta1  1  0.72500000  0.62500000  0.62500000  1
  Ta  Ta1  1  0.72500000  0.62500000  0.82500000  1
  Ta  Ta1  1  0.72500000  0.82500000  0.02500000  1
  Ta  Ta1  1  0.72500000  0.82500000  0.22500000  1
  Ta  Ta1  1  0.72500000  0.82500000  0.42500000  1
  Ta  Ta1  1  0.72500000  0.82500000  0.62500000  1
  Ta  Ta1  1  0.72500000  0.82500000  0.82500000  1
  Ta  Ta1  1  0.92500000  0.02500000  0.02500000  1
  Ta  Ta1  1  0.92500000  0.02500000  0.22500000  1
  Ta  Ta1  1  0.92500000  0.02500000  0.42500000  1
  Ta  Ta1  1  0.92500000  0.02500000  0.62500000  1
  Ta  Ta1  1  0.92500000  0.02500000  0.82500000  1
  Ta  Ta1  1  0.92500000  0.22500000  0.02500000  1
  Ta  Ta1  1  0.92500000  0.22500000  0.22500000  1
  Ta  Ta1  1  0.92500000  0.22500000  0.42500000  1
  Ta  Ta1  1  0.92500000  0.22500000  0.62500000  1
  Ta  Ta1  1  0.92500000  0.22500000  0.82500000  1
  Ta  Ta1  1  0.92500000  0.42500000  0.02500000  1
  Ta  Ta1  1  0.92500000  0.42500000  0.22500000  1
  Ta  Ta1  1  0.92500000  0.42500000  0.42500000  1
  Ta  Ta1  1  0.92500000  0.42500000  0.62500000  1
  Ta  Ta1  1  0.92500000  0.42500000  0.82500000  1
  Ta  Ta1  1  0.92500000  0.62500000  0.02500000  1
  Ta  Ta1  1  0.92500000  0.62500000  0.22500000  1
  Ta  Ta1  1  0.92500000  0.62500000  0.42500000  1
  Ta  Ta1  1  0.92500000  0.62500000  0.62500000  1
  Ta  Ta1  1  0.92500000  0.62500000  0.82500000  1
  Ta  Ta1  1  0.92500000  0.82500000  0.02500000  1
  Ta  Ta1  1  0.92500000  0.82500000  0.22500000  1
  Ta  Ta1  1  0.92500000  0.82500000  0.42500000  1
  Ta  Ta1  1  0.92500000  0.82500000  0.62500000  1
  Ta  Ta1  1  0.92500000  0.82500000  0.82500000  1
  Ta  Ta1  1  0.17500000  0.17500000  0.07500000  1
  Ta  Ta1  1  0.17500000  0.17500000  0.27500000  1
  Ta  Ta1  1  0.17500000  0.17500000  0.47500000  1
  Ta  Ta1  1  0.17500000  0.17500000  0.67500000  1
  Ta  Ta1  1  0.17500000  0.17500000  0.87500000  1
  Ta  Ta1  1  0.17500000  0.37500000  0.07500000  1
  Ta  Ta1  1  0.17500000  0.37500000  0.27500000  1
  Ta  Ta1  1  0.17500000  0.37500000  0.47500000  1
  Ta  Ta1  1  0.17500000  0.37500000  0.67500000  1
  Ta  Ta1  1  0.17500000  0.37500000  0.87500000  1
  Ta  Ta1  1  0.17500000  0.57500000  0.07500000  1
  Ta  Ta1  1  0.17500000  0.57500000  0.27500000  1
  Ta  Ta1  1  0.17500000  0.57500000  0.47500000  1
  Ta  Ta1  1  0.17500000  0.57500000  0.67500000  1
  Ta  Ta1  1  0.17500000  0.57500000  0.87500000  1
  Ta  Ta1  1  0.17500000  0.77500000  0.07500000  1
  Ta  Ta1  1  0.17500000  0.77500000  0.27500000  1
  Ta  Ta1  1  0.17500000  0.77500000  0.47500000  1
  Ta  Ta1  1  0.17500000  0.77500000  0.67500000  1
  Ta  Ta1  1  0.17500000  0.77500000  0.87500000  1
  Ta  Ta1  1  0.17500000  0.97500000  0.07500000  1
  Ta  Ta1  1  0.17500000  0.97500000  0.27500000  1
  Ta  Ta1  1  0.17500000  0.97500000  0.47500000  1
  Ta  Ta1  1  0.17500000  0.97500000  0.67500000  1
  Ta  Ta1  1  0.17500000  0.97500000  0.87500000  1
  Ta  Ta1  1  0.37500000  0.17500000  0.07500000  1
  Ta  Ta1  1  0.37500000  0.17500000  0.27500000  1
  Ta  Ta1  1  0.37500000  0.17500000  0.47500000  1
  Ta  Ta1  1  0.37500000  0.17500000  0.67500000  1
  Ta  Ta1  1  0.37500000  0.17500000  0.87500000  1
  Ta  Ta1  1  0.37500000  0.37500000  0.07500000  1
  Ta  Ta1  1  0.37500000  0.37500000  0.27500000  1
  Ta  Ta1  1  0.37500000  0.37500000  0.47500000  1
  Ta  Ta1  1  0.37500000  0.37500000  0.67500000  1
  Ta  Ta1  1  0.37500000  0.37500000  0.87500000  1
  Ta  Ta1  1  0.37500000  0.57500000  0.07500000  1
  Ta  Ta1  1  0.37500000  0.57500000  0.27500000  1
  Ta  Ta1  1  0.37500000  0.57500000  0.47500000  1
  Ta  Ta1  1  0.37500000  0.57500000  0.67500000  1
  Ta  Ta1  1  0.37500000  0.57500000  0.87500000  1
  Ta  Ta1  1  0.37500000  0.77500000  0.07500000  1
  Ta  Ta1  1  0.37500000  0.77500000  0.27500000  1
  Ta  Ta1  1  0.37500000  0.77500000  0.47500000  1
  Ta  Ta1  1  0.37500000  0.77500000  0.67500000  1
  Ta  Ta1  1  0.37500000  0.77500000  0.87500000  1
  Ta  Ta1  1  0.37500000  0.97500000  0.07500000  1
  Ta  Ta1  1  0.37500000  0.97500000  0.27500000  1
  Ta  Ta1  1  0.37500000  0.97500000  0.47500000  1
  Ta  Ta1  1  0.37500000  0.97500000  0.67500000  1
  Ta  Ta1  1  0.37500000  0.97500000  0.87500000  1
  Ta  Ta1  1  0.57500000  0.17500000  0.07500000  1
  Ta  Ta1  1  0.57500000  0.17500000  0.27500000  1
  Ta  Ta1  1  0.57500000  0.17500000  0.47500000  1
  Ta  Ta1  1  0.57500000  0.17500000  0.67500000  1
  Ta  Ta1  1  0.57500000  0.17500000  0.87500000  1
  Ta  Ta1  1  0.57500000  0.37500000  0.07500000  1
  Ta  Ta1  1  0.57500000  0.37500000  0.27500000  1
  Ta  Ta1  1  0.57500000  0.37500000  0.47500000  1
  Ta  Ta1  1  0.57500000  0.37500000  0.67500000  1
  Ta  Ta1  1  0.57500000  0.37500000  0.87500000  1
  Ta  Ta1  1  0.57500000  0.57500000  0.07500000  1
  Ta  Ta1  1  0.57500000  0.57500000  0.27500000  1
  Ta  Ta1  1  0.57500000  0.57500000  0.47500000  1
  Ta  Ta1  1  0.57500000  0.57500000  0.67500000  1
  Ta  Ta1  1  0.57500000  0.57500000  0.87500000  1
  Ta  Ta1  1  0.57500000  0.77500000  0.07500000  1
  Ta  Ta1  1  0.57500000  0.77500000  0.27500000  1
  Ta  Ta1  1  0.57500000  0.77500000  0.47500000  1
  Ta  Ta1  1  0.57500000  0.77500000  0.67500000  1
  Ta  Ta1  1  0.57500000  0.77500000  0.87500000  1
  Ta  Ta1  1  0.57500000  0.97500000  0.07500000  1
  Ta  Ta1  1  0.57500000  0.97500000  0.27500000  1
  Ta  Ta1  1  0.57500000  0.97500000  0.47500000  1
  Ta  Ta1  1  0.57500000  0.97500000  0.67500000  1
  Ta  Ta1  1  0.57500000  0.97500000  0.87500000  1
  Ta  Ta1  1  0.77500000  0.17500000  0.07500000  1
  Ta  Ta1  1  0.77500000  0.17500000  0.27500000  1
  Ta  Ta1  1  0.77500000  0.17500000  0.47500000  1
  Ta  Ta1  1  0.77500000  0.17500000  0.67500000  1
  Ta  Ta1  1  0.77500000  0.17500000  0.87500000  1
  Ta  Ta1  1  0.77500000  0.37500000  0.07500000  1
  Ta  Ta1  1  0.77500000  0.37500000  0.27500000  1
  Ta  Ta1  1  0.77500000  0.37500000  0.47500000  1
  Ta  Ta1  1  0.77500000  0.37500000  0.67500000  1
  Ta  Ta1  1  0.77500000  0.37500000  0.87500000  1
  Ta  Ta1  1  0.77500000  0.57500000  0.07500000  1
  Ta  Ta1  1  0.77500000  0.57500000  0.27500000  1
  Ta  Ta1  1  0.77500000  0.57500000  0.47500000  1
  Ta  Ta1  1  0.77500000  0.57500000  0.67500000  1
  Ta  Ta1  1  0.77500000  0.57500000  0.87500000  1
  Ta  Ta1  1  0.77500000  0.77500000  0.07500000  1
  Ta  Ta1  1  0.77500000  0.77500000  0.27500000  1
  Ta  Ta1  1  0.77500000  0.77500000  0.47500000  1
  Ta  Ta1  1  0.77500000  0.77500000  0.67500000  1
  Ta  Ta1  1  0.77500000  0.77500000  0.87500000  1
  Ta  Ta1  1  0.77500000  0.97500000  0.07500000  1
  Ta  Ta1  1  0.77500000  0.97500000  0.27500000  1
  Ta  Ta1  1  0.77500000  0.97500000  0.47500000  1
  Ta  Ta1  1  0.77500000  0.97500000  0.67500000  1
  Ta  Ta1  1  0.77500000  0.97500000  0.87500000  1
  Ta  Ta1  1  0.97500000  0.17500000  0.07500000  1
  Ta  Ta1  1  0.97500000  0.17500000  0.27500000  1
  Ta  Ta1  1  0.97500000  0.17500000  0.47500000  1
  Ta  Ta1  1  0.97500000  0.17500000  0.67500000  1
  Ta  Ta1  1  0.97500000  0.17500000  0.87500000  1
  Ta  Ta1  1  0.97500000  0.37500000  0.07500000  1
  Ta  Ta1  1  0.97500000  0.37500000  0.27500000  1
  Ta  Ta1  1  0.97500000  0.37500000  0.47500000  1
  Ta  Ta1  1  0.97500000  0.37500000  0.67500000  1
  Ta  Ta1  1  0.97500000  0.37500000  0.87500000  1
  Ta  Ta1  1  0.97500000  0.57500000  0.07500000  1
  Ta  Ta1  1  0.97500000  0.57500000  0.27500000  1
  Ta  Ta1  1  0.97500000  0.57500000  0.47500000  1
  Ta  Ta1  1  0.97500000  0.57500000  0.67500000  1
  Ta  Ta1  1  0.97500000  0.57500000  0.87500000  1
  Ta  Ta1  1  0.97500000  0.77500000  0.07500000  1
  Ta  Ta1  1  0.97500000  0.77500000  0.27500000  1
  Ta  Ta1  1  0.97500000  0.77500000  0.47500000  1
  Ta  Ta1  1  0.97500000  0.77500000  0.67500000  1
  Ta  Ta1  1  0.97500000  0.77500000  0.87500000  1
  Ta  Ta1  1  0.97500000  0.97500000  0.07500000  1
  Ta  Ta1  1  0.97500000  0.97500000  0.27500000  1
  Ta  Ta1  1  0.97500000  0.97500000  0.47500000  1
  Ta  Ta1  1  0.97500000  0.97500000  0.67500000  1
  Ta  Ta1  1  0.97500000  0.97500000  0.87500000  1
  Ta  Ta1  1  0.02500000  0.02500000  0.12500000  1
  Ta  Ta1  1  0.02500000  0.02500000  0.32500000  1
  Ta  Ta1  1  0.02500000  0.02500000  0.52500000  1
  Ta  Ta1  1  0.02500000  0.02500000  0.72500000  1
  Ta  Ta1  1  0.02500000  0.02500000  0.92500000  1
  Ta  Ta1  1  0.02500000  0.22500000  0.12500000  1
  Ta  Ta1  1  0.02500000  0.22500000  0.32500000  1
  Ta  Ta1  1  0.02500000  0.22500000  0.52500000  1
  Ta  Ta1  1  0.02500000  0.22500000  0.72500000  1
  Ta  Ta1  1  0.02500000  0.22500000  0.92500000  1
  Ta  Ta1  1  0.02500000  0.42500000  0.12500000  1
  Ta  Ta1  1  0.02500000  0.42500000  0.32500000  1
  Ta  Ta1  1  0.02500000  0.42500000  0.52500000  1
  Ta  Ta1  1  0.02500000  0.42500000  0.72500000  1
  Ta  Ta1  1  0.02500000  0.42500000  0.92500000  1
  Ta  Ta1  1  0.02500000  0.62500000  0.12500000  1
  Ta  Ta1  1  0.02500000  0.62500000  0.32500000  1
  Ta  Ta1  1  0.02500000  0.62500000  0.52500000  1
  Ta  Ta1  1  0.02500000  0.62500000  0.72500000  1
  Ta  Ta1  1  0.02500000  0.62500000  0.92500000  1
  Ta  Ta1  1  0.02500000  0.82500000  0.12500000  1
  Ta  Ta1  1  0.02500000  0.82500000  0.32500000  1
  Ta  Ta1  1  0.02500000  0.82500000  0.52500000  1
  Ta  Ta1  1  0.02500000  0.82500000  0.72500000  1
  Ta  Ta1  1  0.02500000  0.82500000  0.92500000  1
  Ta  Ta1  1  0.22500000  0.02500000  0.12500000  1
  Ta  Ta1  1  0.22500000  0.02500000  0.32500000  1
  Ta  Ta1  1  0.22500000  0.02500000  0.52500000  1
  Ta  Ta1  1  0.22500000  0.02500000  0.72500000  1
  Ta  Ta1  1  0.22500000  0.02500000  0.92500000  1
  Ta  Ta1  1  0.22500000  0.22500000  0.12500000  1
  Ta  Ta1  1  0.22500000  0.22500000  0.32500000  1
  Ta  Ta1  1  0.22500000  0.22500000  0.52500000  1
  Ta  Ta1  1  0.22500000  0.22500000  0.72500000  1
  Ta  Ta1  1  0.22500000  0.22500000  0.92500000  1
  Ta  Ta1  1  0.22500000  0.42500000  0.12500000  1
  Ta  Ta1  1  0.22500000  0.42500000  0.32500000  1
  Ta  Ta1  1  0.22500000  0.42500000  0.52500000  1
  Ta  Ta1  1  0.22500000  0.42500000  0.72500000  1
  Ta  Ta1  1  0.22500000  0.42500000  0.92500000  1
  Ta  Ta1  1  0.22500000  0.62500000  0.12500000  1
  Ta  Ta1  1  0.22500000  0.62500000  0.32500000  1
  Ta  Ta1  1  0.22500000  0.62500000  0.52500000  1
  Ta  Ta1  1  0.22500000  0.62500000  0.72500000  1
  Ta  Ta1  1  0.22500000  0.62500000  0.92500000  1
  Ta  Ta1  1  0.22500000  0.82500000  0.12500000  1
  Ta  Ta1  1  0.22500000  0.82500000  0.32500000  1
  Ta  Ta1  1  0.22500000  0.82500000  0.52500000  1
  Ta  Ta1  1  0.22500000  0.82500000  0.72500000  1
  Ta  Ta1  1  0.22500000  0.82500000  0.92500000  1
  Ta  Ta1  1  0.42500000  0.02500000  0.12500000  1
  Ta  Ta1  1  0.42500000  0.02500000  0.32500000  1
  Ta  Ta1  1  0.42500000  0.02500000  0.52500000  1
  Ta  Ta1  1  0.42500000  0.02500000  0.72500000  1
  Ta  Ta1  1  0.42500000  0.02500000  0.92500000  1
  Ta  Ta1  1  0.42500000  0.22500000  0.12500000  1
  Ta  Ta1  1  0.42500000  0.22500000  0.32500000  1
  Ta  Ta1  1  0.42500000  0.22500000  0.52500000  1
  Ta  Ta1  1  0.42500000  0.22500000  0.72500000  1
  Ta  Ta1  1  0.42500000  0.22500000  0.92500000  1
  Ta  Ta1  1  0.42500000  0.42500000  0.12500000  1
  Ta  Ta1  1  0.42500000  0.42500000  0.32500000  1
  Ta  Ta1  1  0.42500000  0.42500000  0.52500000  1
  Ta  Ta1  1  0.42500000  0.42500000  0.72500000  1
  Ta  Ta1  1  0.42500000  0.42500000  0.92500000  1
  Ta  Ta1  1  0.42500000  0.62500000  0.12500000  1
  Ta  Ta1  1  0.42500000  0.62500000  0.32500000  1
  Ta  Ta1  1  0.42500000  0.62500000  0.52500000  1
  Ta  Ta1  1  0.42500000  0.62500000  0.72500000  1
  Ta  Ta1  1  0.42500000  0.62500000  0.92500000  1
  Ta  Ta1  1  0.42500000  0.82500000  0.12500000  1
  Ta  Ta1  1  0.42500000  0.82500000  0.32500000  1
  Ta  Ta1  1  0.42500000  0.82500000  0.52500000  1
  Ta  Ta1  1  0.42500000  0.82500000  0.72500000  1
  Ta  Ta1  1  0.42500000  0.82500000  0.92500000  1
  Ta  Ta1  1  0.62500000  0.02500000  0.12500000  1
  Ta  Ta1  1  0.62500000  0.02500000  0.32500000  1
  Ta  Ta1  1  0.62500000  0.02500000  0.52500000  1
  Ta  Ta1  1  0.62500000  0.02500000  0.72500000  1
  Ta  Ta1  1  0.62500000  0.02500000  0.92500000  1
  Ta  Ta1  1  0.62500000  0.22500000  0.12500000  1
  Ta  Ta1  1  0.62500000  0.22500000  0.32500000  1
  Ta  Ta1  1  0.62500000  0.22500000  0.52500000  1
  Ta  Ta1  1  0.62500000  0.22500000  0.72500000  1
  Ta  Ta1  1  0.62500000  0.22500000  0.92500000  1
  Ta  Ta1  1  0.62500000  0.42500000  0.12500000  1
  Ta  Ta1  1  0.62500000  0.42500000  0.32500000  1
  Ta  Ta1  1  0.62500000  0.42500000  0.52500000  1
  Ta  Ta1  1  0.62500000  0.42500000  0.72500000  1
  Ta  Ta1  1  0.62500000  0.42500000  0.92500000  1
  Ta  Ta1  1  0.62500000  0.62500000  0.12500000  1
  Ta  Ta1  1  0.62500000  0.62500000  0.32500000  1
  Ta  Ta1  1  0.62500000  0.62500000  0.52500000  1
  Ta  Ta1  1  0.62500000  0.62500000  0.72500000  1
  Ta  Ta1  1  0.62500000  0.62500000  0.92500000  1
  Ta  Ta1  1  0.62500000  0.82500000  0.12500000  1
  Ta  Ta1  1  0.62500000  0.82500000  0.32500000  1
  Ta  Ta1  1  0.62500000  0.82500000  0.52500000  1
  Ta  Ta1  1  0.62500000  0.82500000  0.72500000  1
  Ta  Ta1  1  0.62500000  0.82500000  0.92500000  1
  Ta  Ta1  1  0.82500000  0.02500000  0.12500000  1
  Ta  Ta1  1  0.82500000  0.02500000  0.32500000  1
  Ta  Ta1  1  0.82500000  0.02500000  0.52500000  1
  Ta  Ta1  1  0.82500000  0.02500000  0.72500000  1
  Ta  Ta1  1  0.82500000  0.02500000  0.92500000  1
  Ta  Ta1  1  0.82500000  0.22500000  0.12500000  1
  Ta  Ta1  1  0.82500000  0.22500000  0.32500000  1
  Ta  Ta1  1  0.82500000  0.22500000  0.52500000  1
  Ta  Ta1  1  0.82500000  0.22500000  0.72500000  1
  Ta  Ta1  1  0.82500000  0.22500000  0.92500000  1
  Ta  Ta1  1  0.82500000  0.42500000  0.12500000  1
  Ta  Ta1  1  0.82500000  0.42500000  0.32500000  1
  Ta  Ta1  1  0.82500000  0.42500000  0.52500000  1
  Ta  Ta1  1  0.82500000  0.42500000  0.72500000  1
  Ta  Ta1  1  0.82500000  0.42500000  0.92500000  1
  Ta  Ta1  1  0.82500000  0.62500000  0.12500000  1
  Ta  Ta1  1  0.82500000  0.62500000  0.32500000  1
  Ta  Ta1  1  0.82500000  0.62500000  0.52500000  1
  Ta  Ta1  1  0.82500000  0.62500000  0.72500000  1
  Ta  Ta1  1  0.82500000  0.62500000  0.92500000  1
  Ta  Ta1  1  0.82500000  0.82500000  0.12500000  1
  Ta  Ta1  1  0.82500000  0.82500000  0.32500000  1
  Ta  Ta1  1  0.82500000  0.82500000  0.52500000  1
  Ta  Ta1  1  0.82500000  0.82500000  0.72500000  1
  Ta  Ta1  1  0.82500000  0.82500000  0.92500000  1
  Co  Co1  1  0.00000000  0.00000000  0.00000000  1
  Co  Co1  1  0.00000000  0.00000000  0.20000000  1
  Co  Co1  1  0.00000000  0.00000000  0.40000000  1
  Co  Co1  1  0.00000000  0.00000000  0.60000000  1
  Co  Co1  1  0.00000000  0.00000000  0.80000000  1
  Co  Co1  1  0.00000000  0.20000000  0.00000000  1
  Co  Co1  1  0.00000000  0.20000000  0.20000000  1
  Co  Co1  1  0.00000000  0.20000000  0.40000000  1
  Co  Co1  1  0.00000000  0.20000000  0.60000000  1
  Co  Co1  1  0.00000000  0.20000000  0.80000000  1
  Co  Co1  1  0.00000000  0.40000000  0.00000000  1
  Co  Co1  1  0.00000000  0.40000000  0.20000000  1
  Co  Co1  1  0.00000000  0.40000000  0.40000000  1
  Co  Co1  1  0.00000000  0.40000000  0.60000000  1
  Co  Co1  1  0.00000000  0.40000000  0.80000000  1
  Co  Co1  1  0.00000000  0.60000000  0.00000000  1
  Co  Co1  1  0.00000000  0.60000000  0.20000000  1
  Co  Co1  1  0.00000000  0.60000000  0.40000000  1
  Co  Co1  1  0.00000000  0.60000000  0.60000000  1
  Co  Co1  1  0.00000000  0.60000000  0.80000000  1
  Co  Co1  1  0.00000000  0.80000000  0.00000000  1
  Co  Co1  1  0.00000000  0.80000000  0.20000000  1
  Co  Co1  1  0.00000000  0.80000000  0.40000000  1
  Co  Co1  1  0.00000000  0.80000000  0.60000000  1
  Co  Co1  1  0.00000000  0.80000000  0.80000000  1
  Co  Co1  1  0.20000000  0.00000000  0.00000000  1
  Co  Co1  1  0.20000000  0.00000000  0.20000000  1
  Co  Co1  1  0.20000000  0.00000000  0.40000000  1
  Co  Co1  1  0.20000000  0.00000000  0.60000000  1
  Co  Co1  1  0.20000000  0.00000000  0.80000000  1
  Co  Co1  1  0.20000000  0.20000000  0.00000000  1
  Co  Co1  1  0.20000000  0.20000000  0.20000000  1
  Co  Co1  1  0.20000000  0.20000000  0.40000000  1
  Co  Co1  1  0.20000000  0.20000000  0.60000000  1
  Co  Co1  1  0.20000000  0.20000000  0.80000000  1
  Co  Co1  1  0.20000000  0.40000000  0.00000000  1
  Co  Co1  1  0.20000000  0.40000000  0.20000000  1
  Co  Co1  1  0.20000000  0.40000000  0.40000000  1
  Co  Co1  1  0.20000000  0.40000000  0.60000000  1
  Co  Co1  1  0.20000000  0.40000000  0.80000000  1
  Co  Co1  1  0.20000000  0.60000000  0.00000000  1
  Co  Co1  1  0.20000000  0.60000000  0.20000000  1
  Co  Co1  1  0.20000000  0.60000000  0.40000000  1
  Co  Co1  1  0.20000000  0.60000000  0.60000000  1
  Co  Co1  1  0.20000000  0.60000000  0.80000000  1
  Co  Co1  1  0.20000000  0.80000000  0.00000000  1
  Co  Co1  1  0.20000000  0.80000000  0.20000000  1
  Co  Co1  1  0.20000000  0.80000000  0.40000000  1
  Co  Co1  1  0.20000000  0.80000000  0.60000000  1
  Co  Co1  1  0.20000000  0.80000000  0.80000000  1
  Co  Co1  1  0.40000000  0.00000000  0.00000000  1
  Co  Co1  1  0.40000000  0.00000000  0.20000000  1
  Co  Co1  1  0.40000000  0.00000000  0.40000000  1
  Co  Co1  1  0.40000000  0.00000000  0.60000000  1
  Co  Co1  1  0.40000000  0.00000000  0.80000000  1
  Co  Co1  1  0.40000000  0.20000000  0.00000000  1
  Co  Co1  1  0.40000000  0.20000000  0.20000000  1
  Co  Co1  1  0.40000000  0.20000000  0.40000000  1
  Co  Co1  1  0.40000000  0.20000000  0.60000000  1
  Co  Co1  1  0.40000000  0.20000000  0.80000000  1
  Co  Co1  1  0.40000000  0.40000000  0.00000000  1
  Co  Co1  1  0.40000000  0.40000000  0.20000000  1
  Co  Co1  1  0.40000000  0.40000000  0.40000000  1
  Co  Co1  1  0.40000000  0.40000000  0.60000000  1
  Co  Co1  1  0.40000000  0.40000000  0.80000000  1
  Co  Co1  1  0.40000000  0.60000000  0.00000000  1
  Co  Co1  1  0.40000000  0.60000000  0.20000000  1
  Co  Co1  1  0.40000000  0.60000000  0.40000000  1
  Co  Co1  1  0.40000000  0.60000000  0.60000000  1
  Co  Co1  1  0.40000000  0.60000000  0.80000000  1
  Co  Co1  1  0.40000000  0.80000000  0.00000000  1
  Co  Co1  1  0.40000000  0.80000000  0.20000000  1
  Co  Co1  1  0.40000000  0.80000000  0.40000000  1
  Co  Co1  1  0.40000000  0.80000000  0.60000000  1
  Co  Co1  1  0.40000000  0.80000000  0.80000000  1
  Co  Co1  1  0.60000000  0.00000000  0.00000000  1
  Co  Co1  1  0.60000000  0.00000000  0.20000000  1
  Co  Co1  1  0.60000000  0.00000000  0.40000000  1
  Co  Co1  1  0.60000000  0.00000000  0.60000000  1
  Co  Co1  1  0.60000000  0.00000000  0.80000000  1
  Co  Co1  1  0.60000000  0.20000000  0.00000000  1
  Co  Co1  1  0.60000000  0.20000000  0.20000000  1
  Co  Co1  1  0.60000000  0.20000000  0.40000000  1
  Co  Co1  1  0.60000000  0.20000000  0.60000000  1
  Co  Co1  1  0.60000000  0.20000000  0.80000000  1
  Co  Co1  1  0.60000000  0.40000000  0.00000000  1
  Co  Co1  1  0.60000000  0.40000000  0.20000000  1
  Co  Co1  1  0.60000000  0.40000000  0.40000000  1
  Co  Co1  1  0.60000000  0.40000000  0.60000000  1
  Co  Co1  1  0.60000000  0.40000000  0.80000000  1
  Co  Co1  1  0.60000000  0.60000000  0.00000000  1
  Co  Co1  1  0.60000000  0.60000000  0.20000000  1
  Co  Co1  1  0.60000000  0.60000000  0.40000000  1
  Co  Co1  1  0.60000000  0.60000000  0.60000000  1
  Co  Co1  1  0.60000000  0.60000000  0.80000000  1
  Co  Co1  1  0.60000000  0.80000000  0.00000000  1
  Co  Co1  1  0.60000000  0.80000000  0.20000000  1
  Co  Co1  1  0.60000000  0.80000000  0.40000000  1
  Co  Co1  1  0.60000000  0.80000000  0.60000000  1
  Co  Co1  1  0.60000000  0.80000000  0.80000000  1
  Co  Co1  1  0.80000000  0.00000000  0.00000000  1
  Co  Co1  1  0.80000000  0.00000000  0.20000000  1
  Co  Co1  1  0.80000000  0.00000000  0.40000000  1
  Co  Co1  1  0.80000000  0.00000000  0.60000000  1
  Co  Co1  1  0.80000000  0.00000000  0.80000000  1
  Co  Co1  1  0.80000000  0.20000000  0.00000000  1
  Co  Co1  1  0.80000000  0.20000000  0.20000000  1
  Co  Co1  1  0.80000000  0.20000000  0.40000000  1
  Co  Co1  1  0.80000000  0.20000000  0.60000000  1
  Co  Co1  1  0.80000000  0.20000000  0.80000000  1
  Co  Co1  1  0.80000000  0.40000000  0.00000000  1
  Co  Co1  1  0.80000000  0.40000000  0.20000000  1
  Co  Co1  1  0.80000000  0.40000000  0.40000000  1
  Co  Co1  1  0.80000000  0.40000000  0.60000000  1
  Co  Co1  1  0.80000000  0.40000000  0.80000000  1
  Co  Co1  1  0.80000000  0.60000000  0.00000000  1
  Co  Co1  1  0.80000000  0.60000000  0.20000000  1
  Co  Co1  1  0.80000000  0.60000000  0.40000000  1
  Co  Co1  1  0.80000000  0.60000000  0.60000000  1
  Co  Co1  1  0.80000000  0.60000000  0.80000000  1
  Co  Co1  1  0.80000000  0.80000000  0.00000000  1
  Co  Co1  1  0.80000000  0.80000000  0.20000000  1
  Co  Co1  1  0.80000000  0.80000000  0.40000000  1
  Co  Co1  1  0.80000000  0.80000000  0.60000000  1
  Co  Co1  1  0.80000000  0.80000000  0.80000000  1
  Co  Co1  1  0.00000000  0.05000000  0.05000000  1
  Co  Co1  1  0.00000000  0.05000000  0.25000000  1
  Co  Co1  1  0.00000000  0.05000000  0.45000000  1
  Co  Co1  1  0.00000000  0.05000000  0.65000000  1
  Co  Co1  1  0.00000000  0.05000000  0.85000000  1
  Co  Co1  1  0.00000000  0.25000000  0.05000000  1
  Co  Co1  1  0.00000000  0.25000000  0.25000000  1
  Co  Co1  1  0.00000000  0.25000000  0.45000000  1
  Co  Co1  1  0.00000000  0.25000000  0.65000000  1
  Co  Co1  1  0.00000000  0.25000000  0.85000000  1
  Co  Co1  1  0.00000000  0.45000000  0.05000000  1
  Co  Co1  1  0.00000000  0.45000000  0.25000000  1
  Co  Co1  1  0.00000000  0.45000000  0.45000000  1
  Co  Co1  1  0.00000000  0.45000000  0.65000000  1
  Co  Co1  1  0.00000000  0.45000000  0.85000000  1
  Co  Co1  1  0.00000000  0.65000000  0.05000000  1
  Co  Co1  1  0.00000000  0.65000000  0.25000000  1
  Co  Co1  1  0.00000000  0.65000000  0.45000000  1
  Co  Co1  1  0.00000000  0.65000000  0.65000000  1
  Co  Co1  1  0.00000000  0.65000000  0.85000000  1
  Co  Co1  1  0.00000000  0.85000000  0.05000000  1
  Co  Co1  1  0.00000000  0.85000000  0.25000000  1
  Co  Co1  1  0.00000000  0.85000000  0.45000000  1
  Co  Co1  1  0.00000000  0.85000000  0.65000000  1
  Co  Co1  1  0.00000000  0.85000000  0.85000000  1
  Co  Co1  1  0.20000000  0.05000000  0.05000000  1
  Co  Co1  1  0.20000000  0.05000000  0.25000000  1
  Co  Co1  1  0.20000000  0.05000000  0.45000000  1
  Co  Co1  1  0.20000000  0.05000000  0.65000000  1
  Co  Co1  1  0.20000000  0.05000000  0.85000000  1
  Co  Co1  1  0.20000000  0.25000000  0.05000000  1
  Co  Co1  1  0.20000000  0.25000000  0.25000000  1
  Co  Co1  1  0.20000000  0.25000000  0.45000000  1
  Co  Co1  1  0.20000000  0.25000000  0.65000000  1
  Co  Co1  1  0.20000000  0.25000000  0.85000000  1
  Co  Co1  1  0.20000000  0.45000000  0.05000000  1
  Co  Co1  1  0.20000000  0.45000000  0.25000000  1
  Co  Co1  1  0.20000000  0.45000000  0.45000000  1
  Co  Co1  1  0.20000000  0.45000000  0.65000000  1
  Co  Co1  1  0.20000000  0.45000000  0.85000000  1
  Co  Co1  1  0.20000000  0.65000000  0.05000000  1
  Co  Co1  1  0.20000000  0.65000000  0.25000000  1
  Co  Co1  1  0.20000000  0.65000000  0.45000000  1
  Co  Co1  1  0.20000000  0.65000000  0.65000000  1
  Co  Co1  1  0.20000000  0.65000000  0.85000000  1
  Co  Co1  1  0.20000000  0.85000000  0.05000000  1
  Co  Co1  1  0.20000000  0.85000000  0.25000000  1
  Co  Co1  1  0.20000000  0.85000000  0.45000000  1
  Co  Co1  1  0.20000000  0.85000000  0.65000000  1
  Co  Co1  1  0.20000000  0.85000000  0.85000000  1
  Co  Co1  1  0.40000000  0.05000000  0.05000000  1
  Co  Co1  1  0.40000000  0.05000000  0.25000000  1
  Co  Co1  1  0.40000000  0.05000000  0.45000000  1
  Co  Co1  1  0.40000000  0.05000000  0.65000000  1
  Co  Co1  1  0.40000000  0.05000000  0.85000000  1
  Co  Co1  1  0.40000000  0.25000000  0.05000000  1
  Co  Co1  1  0.40000000  0.25000000  0.25000000  1
  Co  Co1  1  0.40000000  0.25000000  0.45000000  1
  Co  Co1  1  0.40000000  0.25000000  0.65000000  1
  Co  Co1  1  0.40000000  0.25000000  0.85000000  1
  Co  Co1  1  0.40000000  0.45000000  0.05000000  1
  Co  Co1  1  0.40000000  0.45000000  0.25000000  1
  Co  Co1  1  0.40000000  0.45000000  0.45000000  1
  Co  Co1  1  0.40000000  0.45000000  0.65000000  1
  Co  Co1  1  0.40000000  0.45000000  0.85000000  1
  Co  Co1  1  0.40000000  0.65000000  0.05000000  1
  Co  Co1  1  0.40000000  0.65000000  0.25000000  1
  Co  Co1  1  0.40000000  0.65000000  0.45000000  1
  Co  Co1  1  0.40000000  0.65000000  0.65000000  1
  Co  Co1  1  0.40000000  0.65000000  0.85000000  1
  Co  Co1  1  0.40000000  0.85000000  0.05000000  1
  Co  Co1  1  0.40000000  0.85000000  0.25000000  1
  Co  Co1  1  0.40000000  0.85000000  0.45000000  1
  Co  Co1  1  0.40000000  0.85000000  0.65000000  1
  Co  Co1  1  0.40000000  0.85000000  0.85000000  1
  Co  Co1  1  0.60000000  0.05000000  0.05000000  1
  Co  Co1  1  0.60000000  0.05000000  0.25000000  1
  Co  Co1  1  0.60000000  0.05000000  0.45000000  1
  Co  Co1  1  0.60000000  0.05000000  0.65000000  1
  Co  Co1  1  0.60000000  0.05000000  0.85000000  1
  Co  Co1  1  0.60000000  0.25000000  0.05000000  1
  Co  Co1  1  0.60000000  0.25000000  0.25000000  1
  Co  Co1  1  0.60000000  0.25000000  0.45000000  1
  Co  Co1  1  0.60000000  0.25000000  0.65000000  1
  Co  Co1  1  0.60000000  0.25000000  0.85000000  1
  Co  Co1  1  0.60000000  0.45000000  0.05000000  1
  Co  Co1  1  0.60000000  0.45000000  0.25000000  1
  Co  Co1  1  0.60000000  0.45000000  0.45000000  1
  Co  Co1  1  0.60000000  0.45000000  0.65000000  1
  Co  Co1  1  0.60000000  0.45000000  0.85000000  1
  Co  Co1  1  0.60000000  0.65000000  0.05000000  1
  Co  Co1  1  0.60000000  0.65000000  0.25000000  1
  Co  Co1  1  0.60000000  0.65000000  0.45000000  1
  Co  Co1  1  0.60000000  0.65000000  0.65000000  1
  Co  Co1  1  0.60000000  0.65000000  0.85000000  1
  Co  Co1  1  0.60000000  0.85000000  0.05000000  1
  Co  Co1  1  0.60000000  0.85000000  0.25000000  1
  Co  Co1  1  0.60000000  0.85000000  0.45000000  1
  Co  Co1  1  0.60000000  0.85000000  0.65000000  1
  Co  Co1  1  0.60000000  0.85000000  0.85000000  1
  Co  Co1  1  0.80000000  0.05000000  0.05000000  1
  Co  Co1  1  0.80000000  0.05000000  0.25000000  1
  Co  Co1  1  0.80000000  0.05000000  0.45000000  1
  Co  Co1  1  0.80000000  0.05000000  0.65000000  1
  Co  Co1  1  0.80000000  0.05000000  0.85000000  1
  Co  Co1  1  0.80000000  0.25000000  0.05000000  1
  Co  Co1  1  0.80000000  0.25000000  0.25000000  1
  Co  Co1  1  0.80000000  0.25000000  0.45000000  1
  Co  Co1  1  0.80000000  0.25000000  0.65000000  1
  Co  Co1  1  0.80000000  0.25000000  0.85000000  1
  Co  Co1  1  0.80000000  0.45000000  0.05000000  1
  Co  Co1  1  0.80000000  0.45000000  0.25000000  1
  Co  Co1  1  0.80000000  0.45000000  0.45000000  1
  Co  Co1  1  0.80000000  0.45000000  0.65000000  1
  Co  Co1  1  0.80000000  0.45000000  0.85000000  1
  Co  Co1  1  0.80000000  0.65000000  0.05000000  1
  Co  Co1  1  0.80000000  0.65000000  0.25000000  1
  Co  Co1  1  0.80000000  0.65000000  0.45000000  1
  Co  Co1  1  0.80000000  0.65000000  0.65000000  1
  Co  Co1  1  0.80000000  0.65000000  0.85000000  1
  Co  Co1  1  0.80000000  0.85000000  0.05000000  1
  Co  Co1  1  0.80000000  0.85000000  0.25000000  1
  Co  Co1  1  0.80000000  0.85000000  0.45000000  1
  Co  Co1  1  0.80000000  0.85000000  0.65000000  1
  Co  Co1  1  0.80000000  0.85000000  0.85000000  1
  Co  Co1  1  0.15000000  0.05000000  0.10000000  1
  Co  Co1  1  0.15000000  0.05000000  0.30000000  1
  Co  Co1  1  0.15000000  0.05000000  0.50000000  1
  Co  Co1  1  0.15000000  0.05000000  0.70000000  1
  Co  Co1  1  0.15000000  0.05000000  0.90000000  1
  Co  Co1  1  0.15000000  0.25000000  0.10000000  1
  Co  Co1  1  0.15000000  0.25000000  0.30000000  1
  Co  Co1  1  0.15000000  0.25000000  0.50000000  1
  Co  Co1  1  0.15000000  0.25000000  0.70000000  1
  Co  Co1  1  0.15000000  0.25000000  0.90000000  1
  Co  Co1  1  0.15000000  0.45000000  0.10000000  1
  Co  Co1  1  0.15000000  0.45000000  0.30000000  1
  Co  Co1  1  0.15000000  0.45000000  0.50000000  1
  Co  Co1  1  0.15000000  0.45000000  0.70000000  1
  Co  Co1  1  0.15000000  0.45000000  0.90000000  1
  Co  Co1  1  0.15000000  0.65000000  0.10000000  1
  Co  Co1  1  0.15000000  0.65000000  0.30000000  1
  Co  Co1  1  0.15000000  0.65000000  0.50000000  1
  Co  Co1  1  0.15000000  0.65000000  0.70000000  1
  Co  Co1  1  0.15000000  0.65000000  0.90000000  1
  Co  Co1  1  0.15000000  0.85000000  0.10000000  1
  Co  Co1  1  0.15000000  0.85000000  0.30000000  1
  Co  Co1  1  0.15000000  0.85000000  0.50000000  1
  Co  Co1  1  0.15000000  0.85000000  0.70000000  1
  Co  Co1  1  0.15000000  0.85000000  0.90000000  1
  Co  Co1  1  0.35000000  0.05000000  0.10000000  1
  Co  Co1  1  0.35000000  0.05000000  0.30000000  1
  Co  Co1  1  0.35000000  0.05000000  0.50000000  1
  Co  Co1  1  0.35000000  0.05000000  0.70000000  1
  Co  Co1  1  0.35000000  0.05000000  0.90000000  1
  Co  Co1  1  0.35000000  0.25000000  0.10000000  1
  Co  Co1  1  0.35000000  0.25000000  0.30000000  1
  Co  Co1  1  0.35000000  0.25000000  0.50000000  1
  Co  Co1  1  0.35000000  0.25000000  0.70000000  1
  Co  Co1  1  0.35000000  0.25000000  0.90000000  1
  Co  Co1  1  0.35000000  0.45000000  0.10000000  1
  Co  Co1  1  0.35000000  0.45000000  0.30000000  1
  Co  Co1  1  0.35000000  0.45000000  0.50000000  1
  Co  Co1  1  0.35000000  0.45000000  0.70000000  1
  Co  Co1  1  0.35000000  0.45000000  0.90000000  1
  Co  Co1  1  0.35000000  0.65000000  0.10000000  1
  Co  Co1  1  0.35000000  0.65000000  0.30000000  1
  Co  Co1  1  0.35000000  0.65000000  0.50000000  1
  Co  Co1  1  0.35000000  0.65000000  0.70000000  1
  Co  Co1  1  0.35000000  0.65000000  0.90000000  1
  Co  Co1  1  0.35000000  0.85000000  0.10000000  1
  Co  Co1  1  0.35000000  0.85000000  0.30000000  1
  Co  Co1  1  0.35000000  0.85000000  0.50000000  1
  Co  Co1  1  0.35000000  0.85000000  0.70000000  1
  Co  Co1  1  0.35000000  0.85000000  0.90000000  1
  Co  Co1  1  0.55000000  0.05000000  0.10000000  1
  Co  Co1  1  0.55000000  0.05000000  0.30000000  1
  Co  Co1  1  0.55000000  0.05000000  0.50000000  1
  Co  Co1  1  0.55000000  0.05000000  0.70000000  1
  Co  Co1  1  0.55000000  0.05000000  0.90000000  1
  Co  Co1  1  0.55000000  0.25000000  0.10000000  1
  Co  Co1  1  0.55000000  0.25000000  0.30000000  1
  Co  Co1  1  0.55000000  0.25000000  0.50000000  1
  Co  Co1  1  0.55000000  0.25000000  0.70000000  1
  Co  Co1  1  0.55000000  0.25000000  0.90000000  1
  Co  Co1  1  0.55000000  0.45000000  0.10000000  1
  Co  Co1  1  0.55000000  0.45000000  0.30000000  1
  Co  Co1  1  0.55000000  0.45000000  0.50000000  1
  Co  Co1  1  0.55000000  0.45000000  0.70000000  1
  Co  Co1  1  0.55000000  0.45000000  0.90000000  1
  Co  Co1  1  0.55000000  0.65000000  0.10000000  1
  Co  Co1  1  0.55000000  0.65000000  0.30000000  1
  Co  Co1  1  0.55000000  0.65000000  0.50000000  1
  Co  Co1  1  0.55000000  0.65000000  0.70000000  1
  Co  Co1  1  0.55000000  0.65000000  0.90000000  1
  Co  Co1  1  0.55000000  0.85000000  0.10000000  1
  Co  Co1  1  0.55000000  0.85000000  0.30000000  1
  Co  Co1  1  0.55000000  0.85000000  0.50000000  1
  Co  Co1  1  0.55000000  0.85000000  0.70000000  1
  Co  Co1  1  0.55000000  0.85000000  0.90000000  1
  Co  Co1  1  0.75000000  0.05000000  0.10000000  1
  Co  Co1  1  0.75000000  0.05000000  0.30000000  1
  Co  Co1  1  0.75000000  0.05000000  0.50000000  1
  Co  Co1  1  0.75000000  0.05000000  0.70000000  1
  Co  Co1  1  0.75000000  0.05000000  0.90000000  1
  Co  Co1  1  0.75000000  0.25000000  0.10000000  1
  Co  Co1  1  0.75000000  0.25000000  0.30000000  1
  Co  Co1  1  0.75000000  0.25000000  0.50000000  1
  Co  Co1  1  0.75000000  0.25000000  0.70000000  1
  Co  Co1  1  0.75000000  0.25000000  0.90000000  1
  Co  Co1  1  0.75000000  0.45000000  0.10000000  1
  Co  Co1  1  0.75000000  0.45000000  0.30000000  1
  Co  Co1  1  0.75000000  0.45000000  0.50000000  1
  Co  Co1  1  0.75000000  0.45000000  0.70000000  1
  Co  Co1  1  0.75000000  0.45000000  0.90000000  1
  Co  Co1  1  0.75000000  0.65000000  0.10000000  1
  Co  Co1  1  0.75000000  0.65000000  0.30000000  1
  Co  Co1  1  0.75000000  0.65000000  0.50000000  1
  Co  Co1  1  0.75000000  0.65000000  0.70000000  1
  Co  Co1  1  0.75000000  0.65000000  0.90000000  1
  Co  Co1  1  0.75000000  0.85000000  0.10000000  1
  Co  Co1  1  0.75000000  0.85000000  0.30000000  1
  Co  Co1  1  0.75000000  0.85000000  0.50000000  1
  Co  Co1  1  0.75000000  0.85000000  0.70000000  1
  Co  Co1  1  0.75000000  0.85000000  0.90000000  1
  Co  Co1  1  0.95000000  0.05000000  0.10000000  1
  Co  Co1  1  0.95000000  0.05000000  0.30000000  1
  Co  Co1  1  0.95000000  0.05000000  0.50000000  1
  Co  Co1  1  0.95000000  0.05000000  0.70000000  1
  Co  Co1  1  0.95000000  0.05000000  0.90000000  1
  Co  Co1  1  0.95000000  0.25000000  0.10000000  1
  Co  Co1  1  0.95000000  0.25000000  0.30000000  1
  Co  Co1  1  0.95000000  0.25000000  0.50000000  1
  Co  Co1  1  0.95000000  0.25000000  0.70000000  1
  Co  Co1  1  0.95000000  0.25000000  0.90000000  1
  Co  Co1  1  0.95000000  0.45000000  0.10000000  1
  Co  Co1  1  0.95000000  0.45000000  0.30000000  1
  Co  Co1  1  0.95000000  0.45000000  0.50000000  1
  Co  Co1  1  0.95000000  0.45000000  0.70000000  1
  Co  Co1  1  0.95000000  0.45000000  0.90000000  1
  Co  Co1  1  0.95000000  0.65000000  0.10000000  1
  Co  Co1  1  0.95000000  0.65000000  0.30000000  1
  Co  Co1  1  0.95000000  0.65000000  0.50000000  1
  Co  Co1  1  0.95000000  0.65000000  0.70000000  1
  Co  Co1  1  0.95000000  0.65000000  0.90000000  1
  Co  Co1  1  0.95000000  0.85000000  0.10000000  1
  Co  Co1  1  0.95000000  0.85000000  0.30000000  1
  Co  Co1  1  0.95000000  0.85000000  0.50000000  1
  Co  Co1  1  0.95000000  0.85000000  0.70000000  1
  Co  Co1  1  0.95000000  0.85000000  0.90000000  1
  Co  Co1  1  0.15000000  0.00000000  0.15000000  1
  Co  Co1  1  0.15000000  0.00000000  0.35000000  1
  Co  Co1  1  0.15000000  0.00000000  0.55000000  1
  Co  Co1  1  0.15000000  0.00000000  0.75000000  1
  Co  Co1  1  0.15000000  0.00000000  0.95000000  1
  Co  Co1  1  0.15000000  0.20000000  0.15000000  1
  Co  Co1  1  0.15000000  0.20000000  0.35000000  1
  Co  Co1  1  0.15000000  0.20000000  0.55000000  1
  Co  Co1  1  0.15000000  0.20000000  0.75000000  1
  Co  Co1  1  0.15000000  0.20000000  0.95000000  1
  Co  Co1  1  0.15000000  0.40000000  0.15000000  1
  Co  Co1  1  0.15000000  0.40000000  0.35000000  1
  Co  Co1  1  0.15000000  0.40000000  0.55000000  1
  Co  Co1  1  0.15000000  0.40000000  0.75000000  1
  Co  Co1  1  0.15000000  0.40000000  0.95000000  1
  Co  Co1  1  0.15000000  0.60000000  0.15000000  1
  Co  Co1  1  0.15000000  0.60000000  0.35000000  1
  Co  Co1  1  0.15000000  0.60000000  0.55000000  1
  Co  Co1  1  0.15000000  0.60000000  0.75000000  1
  Co  Co1  1  0.15000000  0.60000000  0.95000000  1
  Co  Co1  1  0.15000000  0.80000000  0.15000000  1
  Co  Co1  1  0.15000000  0.80000000  0.35000000  1
  Co  Co1  1  0.15000000  0.80000000  0.55000000  1
  Co  Co1  1  0.15000000  0.80000000  0.75000000  1
  Co  Co1  1  0.15000000  0.80000000  0.95000000  1
  Co  Co1  1  0.35000000  0.00000000  0.15000000  1
  Co  Co1  1  0.35000000  0.00000000  0.35000000  1
  Co  Co1  1  0.35000000  0.00000000  0.55000000  1
  Co  Co1  1  0.35000000  0.00000000  0.75000000  1
  Co  Co1  1  0.35000000  0.00000000  0.95000000  1
  Co  Co1  1  0.35000000  0.20000000  0.15000000  1
  Co  Co1  1  0.35000000  0.20000000  0.35000000  1
  Co  Co1  1  0.35000000  0.20000000  0.55000000  1
  Co  Co1  1  0.35000000  0.20000000  0.75000000  1
  Co  Co1  1  0.35000000  0.20000000  0.95000000  1
  Co  Co1  1  0.35000000  0.40000000  0.15000000  1
  Co  Co1  1  0.35000000  0.40000000  0.35000000  1
  Co  Co1  1  0.35000000  0.40000000  0.55000000  1
  Co  Co1  1  0.35000000  0.40000000  0.75000000  1
  Co  Co1  1  0.35000000  0.40000000  0.95000000  1
  Co  Co1  1  0.35000000  0.60000000  0.15000000  1
  Co  Co1  1  0.35000000  0.60000000  0.35000000  1
  Co  Co1  1  0.35000000  0.60000000  0.55000000  1
  Co  Co1  1  0.35000000  0.60000000  0.75000000  1
  Co  Co1  1  0.35000000  0.60000000  0.95000000  1
  Co  Co1  1  0.35000000  0.80000000  0.15000000  1
  Co  Co1  1  0.35000000  0.80000000  0.35000000  1
  Co  Co1  1  0.35000000  0.80000000  0.55000000  1
  Co  Co1  1  0.35000000  0.80000000  0.75000000  1
  Co  Co1  1  0.35000000  0.80000000  0.95000000  1
  Co  Co1  1  0.55000000  0.00000000  0.15000000  1
  Co  Co1  1  0.55000000  0.00000000  0.35000000  1
  Co  Co1  1  0.55000000  0.00000000  0.55000000  1
  Co  Co1  1  0.55000000  0.00000000  0.75000000  1
  Co  Co1  1  0.55000000  0.00000000  0.95000000  1
  Co  Co1  1  0.55000000  0.20000000  0.15000000  1
  Co  Co1  1  0.55000000  0.20000000  0.35000000  1
  Co  Co1  1  0.55000000  0.20000000  0.55000000  1
  Co  Co1  1  0.55000000  0.20000000  0.75000000  1
  Co  Co1  1  0.55000000  0.20000000  0.95000000  1
  Co  Co1  1  0.55000000  0.40000000  0.15000000  1
  Co  Co1  1  0.55000000  0.40000000  0.35000000  1
  Co  Co1  1  0.55000000  0.40000000  0.55000000  1
  Co  Co1  1  0.55000000  0.40000000  0.75000000  1
  Co  Co1  1  0.55000000  0.40000000  0.95000000  1
  Co  Co1  1  0.55000000  0.60000000  0.15000000  1
  Co  Co1  1  0.55000000  0.60000000  0.35000000  1
  Co  Co1  1  0.55000000  0.60000000  0.55000000  1
  Co  Co1  1  0.55000000  0.60000000  0.75000000  1
  Co  Co1  1  0.55000000  0.60000000  0.95000000  1
  Co  Co1  1  0.55000000  0.80000000  0.15000000  1
  Co  Co1  1  0.55000000  0.80000000  0.35000000  1
  Co  Co1  1  0.55000000  0.80000000  0.55000000  1
  Co  Co1  1  0.55000000  0.80000000  0.75000000  1
  Co  Co1  1  0.55000000  0.80000000  0.95000000  1
  Co  Co1  1  0.75000000  0.00000000  0.15000000  1
  Co  Co1  1  0.75000000  0.00000000  0.35000000  1
  Co  Co1  1  0.75000000  0.00000000  0.55000000  1
  Co  Co1  1  0.75000000  0.00000000  0.75000000  1
  Co  Co1  1  0.75000000  0.00000000  0.95000000  1
  Co  Co1  1  0.75000000  0.20000000  0.15000000  1
  Co  Co1  1  0.75000000  0.20000000  0.35000000  1
  Co  Co1  1  0.75000000  0.20000000  0.55000000  1
  Co  Co1  1  0.75000000  0.20000000  0.75000000  1
  Co  Co1  1  0.75000000  0.20000000  0.95000000  1
  Co  Co1  1  0.75000000  0.40000000  0.15000000  1
  Co  Co1  1  0.75000000  0.40000000  0.35000000  1
  Co  Co1  1  0.75000000  0.40000000  0.55000000  1
  Co  Co1  1  0.75000000  0.40000000  0.75000000  1
  Co  Co1  1  0.75000000  0.40000000  0.95000000  1
  Co  Co1  1  0.75000000  0.60000000  0.15000000  1
  Co  Co1  1  0.75000000  0.60000000  0.35000000  1
  Co  Co1  1  0.75000000  0.60000000  0.55000000  1
  Co  Co1  1  0.75000000  0.60000000  0.75000000  1
  Co  Co1  1  0.75000000  0.60000000  0.95000000  1
  Co  Co1  1  0.75000000  0.80000000  0.15000000  1
  Co  Co1  1  0.75000000  0.80000000  0.35000000  1
  Co  Co1  1  0.75000000  0.80000000  0.55000000  1
  Co  Co1  1  0.75000000  0.80000000  0.75000000  1
  Co  Co1  1  0.75000000  0.80000000  0.95000000  1
  Co  Co1  1  0.95000000  0.00000000  0.15000000  1
  Co  Co1  1  0.95000000  0.00000000  0.35000000  1
  Co  Co1  1  0.95000000  0.00000000  0.55000000  1
  Co  Co1  1  0.95000000  0.00000000  0.75000000  1
  Co  Co1  1  0.95000000  0.00000000  0.95000000  1
  Co  Co1  1  0.95000000  0.20000000  0.15000000  1
  Co  Co1  1  0.95000000  0.20000000  0.35000000  1
  Co  Co1  1  0.95000000  0.20000000  0.55000000  1
  Co  Co1  1  0.95000000  0.20000000  0.75000000  1
  Co  Co1  1  0.95000000  0.20000000  0.95000000  1
  Co  Co1  1  0.95000000  0.40000000  0.15000000  1
  Co  Co1  1  0.95000000  0.40000000  0.35000000  1
  Co  Co1  1  0.95000000  0.40000000  0.55000000  1
  Co  Co1  1  0.95000000  0.40000000  0.75000000  1
  Co  Co1  1  0.95000000  0.40000000  0.95000000  1
  Co  Co1  1  0.95000000  0.60000000  0.15000000  1
  Co  Co1  1  0.95000000  0.60000000  0.35000000  1
  Co  Co1  1  0.95000000  0.60000000  0.55000000  1
  Co  Co1  1  0.95000000  0.60000000  0.75000000  1
  Co  Co1  1  0.95000000  0.60000000  0.95000000  1
  Co  Co1  1  0.95000000  0.80000000  0.15000000  1
  Co  Co1  1  0.95000000  0.80000000  0.35000000  1
  Co  Co1  1  0.95000000  0.80000000  0.55000000  1
  Co  Co1  1  0.95000000  0.80000000  0.75000000  1
  Co  Co1  1  0.95000000  0.80000000  0.95000000  1
  Co  Co1  1  0.10000000  0.15000000  0.05000000  1
  Co  Co1  1  0.10000000  0.15000000  0.25000000  1
  Co  Co1  1  0.10000000  0.15000000  0.45000000  1
  Co  Co1  1  0.10000000  0.15000000  0.65000000  1
  Co  Co1  1  0.10000000  0.15000000  0.85000000  1
  Co  Co1  1  0.10000000  0.35000000  0.05000000  1
  Co  Co1  1  0.10000000  0.35000000  0.25000000  1
  Co  Co1  1  0.10000000  0.35000000  0.45000000  1
  Co  Co1  1  0.10000000  0.35000000  0.65000000  1
  Co  Co1  1  0.10000000  0.35000000  0.85000000  1
  Co  Co1  1  0.10000000  0.55000000  0.05000000  1
  Co  Co1  1  0.10000000  0.55000000  0.25000000  1
  Co  Co1  1  0.10000000  0.55000000  0.45000000  1
  Co  Co1  1  0.10000000  0.55000000  0.65000000  1
  Co  Co1  1  0.10000000  0.55000000  0.85000000  1
  Co  Co1  1  0.10000000  0.75000000  0.05000000  1
  Co  Co1  1  0.10000000  0.75000000  0.25000000  1
  Co  Co1  1  0.10000000  0.75000000  0.45000000  1
  Co  Co1  1  0.10000000  0.75000000  0.65000000  1
  Co  Co1  1  0.10000000  0.75000000  0.85000000  1
  Co  Co1  1  0.10000000  0.95000000  0.05000000  1
  Co  Co1  1  0.10000000  0.95000000  0.25000000  1
  Co  Co1  1  0.10000000  0.95000000  0.45000000  1
  Co  Co1  1  0.10000000  0.95000000  0.65000000  1
  Co  Co1  1  0.10000000  0.95000000  0.85000000  1
  Co  Co1  1  0.30000000  0.15000000  0.05000000  1
  Co  Co1  1  0.30000000  0.15000000  0.25000000  1
  Co  Co1  1  0.30000000  0.15000000  0.45000000  1
  Co  Co1  1  0.30000000  0.15000000  0.65000000  1
  Co  Co1  1  0.30000000  0.15000000  0.85000000  1
  Co  Co1  1  0.30000000  0.35000000  0.05000000  1
  Co  Co1  1  0.30000000  0.35000000  0.25000000  1
  Co  Co1  1  0.30000000  0.35000000  0.45000000  1
  Co  Co1  1  0.30000000  0.35000000  0.65000000  1
  Co  Co1  1  0.30000000  0.35000000  0.85000000  1
  Co  Co1  1  0.30000000  0.55000000  0.05000000  1
  Co  Co1  1  0.30000000  0.55000000  0.25000000  1
  Co  Co1  1  0.30000000  0.55000000  0.45000000  1
  Co  Co1  1  0.30000000  0.55000000  0.65000000  1
  Co  Co1  1  0.30000000  0.55000000  0.85000000  1
  Co  Co1  1  0.30000000  0.75000000  0.05000000  1
  Co  Co1  1  0.30000000  0.75000000  0.25000000  1
  Co  Co1  1  0.30000000  0.75000000  0.45000000  1
  Co  Co1  1  0.30000000  0.75000000  0.65000000  1
  Co  Co1  1  0.30000000  0.75000000  0.85000000  1
  Co  Co1  1  0.30000000  0.95000000  0.05000000  1
  Co  Co1  1  0.30000000  0.95000000  0.25000000  1
  Co  Co1  1  0.30000000  0.95000000  0.45000000  1
  Co  Co1  1  0.30000000  0.95000000  0.65000000  1
  Co  Co1  1  0.30000000  0.95000000  0.85000000  1
  Co  Co1  1  0.50000000  0.15000000  0.05000000  1
  Co  Co1  1  0.50000000  0.15000000  0.25000000  1
  Co  Co1  1  0.50000000  0.15000000  0.45000000  1
  Co  Co1  1  0.50000000  0.15000000  0.65000000  1
  Co  Co1  1  0.50000000  0.15000000  0.85000000  1
  Co  Co1  1  0.50000000  0.35000000  0.05000000  1
  Co  Co1  1  0.50000000  0.35000000  0.25000000  1
  Co  Co1  1  0.50000000  0.35000000  0.45000000  1
  Co  Co1  1  0.50000000  0.35000000  0.65000000  1
  Co  Co1  1  0.50000000  0.35000000  0.85000000  1
  Co  Co1  1  0.50000000  0.55000000  0.05000000  1
  Co  Co1  1  0.50000000  0.55000000  0.25000000  1
  Co  Co1  1  0.50000000  0.55000000  0.45000000  1
  Co  Co1  1  0.50000000  0.55000000  0.65000000  1
  Co  Co1  1  0.50000000  0.55000000  0.85000000  1
  Co  Co1  1  0.50000000  0.75000000  0.05000000  1
  Co  Co1  1  0.50000000  0.75000000  0.25000000  1
  Co  Co1  1  0.50000000  0.75000000  0.45000000  1
  Co  Co1  1  0.50000000  0.75000000  0.65000000  1
  Co  Co1  1  0.50000000  0.75000000  0.85000000  1
  Co  Co1  1  0.50000000  0.95000000  0.05000000  1
  Co  Co1  1  0.50000000  0.95000000  0.25000000  1
  Co  Co1  1  0.50000000  0.95000000  0.45000000  1
  Co  Co1  1  0.50000000  0.95000000  0.65000000  1
  Co  Co1  1  0.50000000  0.95000000  0.85000000  1
  Co  Co1  1  0.70000000  0.15000000  0.05000000  1
  Co  Co1  1  0.70000000  0.15000000  0.25000000  1
  Co  Co1  1  0.70000000  0.15000000  0.45000000  1
  Co  Co1  1  0.70000000  0.15000000  0.65000000  1
  Co  Co1  1  0.70000000  0.15000000  0.85000000  1
  Co  Co1  1  0.70000000  0.35000000  0.05000000  1
  Co  Co1  1  0.70000000  0.35000000  0.25000000  1
  Co  Co1  1  0.70000000  0.35000000  0.45000000  1
  Co  Co1  1  0.70000000  0.35000000  0.65000000  1
  Co  Co1  1  0.70000000  0.35000000  0.85000000  1
  Co  Co1  1  0.70000000  0.55000000  0.05000000  1
  Co  Co1  1  0.70000000  0.55000000  0.25000000  1
  Co  Co1  1  0.70000000  0.55000000  0.45000000  1
  Co  Co1  1  0.70000000  0.55000000  0.65000000  1
  Co  Co1  1  0.70000000  0.55000000  0.85000000  1
  Co  Co1  1  0.70000000  0.75000000  0.05000000  1
  Co  Co1  1  0.70000000  0.75000000  0.25000000  1
  Co  Co1  1  0.70000000  0.75000000  0.45000000  1
  Co  Co1  1  0.70000000  0.75000000  0.65000000  1
  Co  Co1  1  0.70000000  0.75000000  0.85000000  1
  Co  Co1  1  0.70000000  0.95000000  0.05000000  1
  Co  Co1  1  0.70000000  0.95000000  0.25000000  1
  Co  Co1  1  0.70000000  0.95000000  0.45000000  1
  Co  Co1  1  0.70000000  0.95000000  0.65000000  1
  Co  Co1  1  0.70000000  0.95000000  0.85000000  1
  Co  Co1  1  0.90000000  0.15000000  0.05000000  1
  Co  Co1  1  0.90000000  0.15000000  0.25000000  1
  Co  Co1  1  0.90000000  0.15000000  0.45000000  1
  Co  Co1  1  0.90000000  0.15000000  0.65000000  1
  Co  Co1  1  0.90000000  0.15000000  0.85000000  1
  Co  Co1  1  0.90000000  0.35000000  0.05000000  1
  Co  Co1  1  0.90000000  0.35000000  0.25000000  1
  Co  Co1  1  0.90000000  0.35000000  0.45000000  1
  Co  Co1  1  0.90000000  0.35000000  0.65000000  1
  Co  Co1  1  0.90000000  0.35000000  0.85000000  1
  Co  Co1  1  0.90000000  0.55000000  0.05000000  1
  Co  Co1  1  0.90000000  0.55000000  0.25000000  1
  Co  Co1  1  0.90000000  0.55000000  0.45000000  1
  Co  Co1  1  0.90000000  0.55000000  0.65000000  1
  Co  Co1  1  0.90000000  0.55000000  0.85000000  1
  Co  Co1  1  0.90000000  0.75000000  0.05000000  1
  Co  Co1  1  0.90000000  0.75000000  0.25000000  1
  Co  Co1  1  0.90000000  0.75000000  0.45000000  1
  Co  Co1  1  0.90000000  0.75000000  0.65000000  1
  Co  Co1  1  0.90000000  0.75000000  0.85000000  1
  Co  Co1  1  0.90000000  0.95000000  0.05000000  1
  Co  Co1  1  0.90000000  0.95000000  0.25000000  1
  Co  Co1  1  0.90000000  0.95000000  0.45000000  1
  Co  Co1  1  0.90000000  0.95000000  0.65000000  1
  Co  Co1  1  0.90000000  0.95000000  0.85000000  1
  Co  Co1  1  0.05000000  0.15000000  0.10000000  1
  Co  Co1  1  0.05000000  0.15000000  0.30000000  1
  Co  Co1  1  0.05000000  0.15000000  0.50000000  1
  Co  Co1  1  0.05000000  0.15000000  0.70000000  1
  Co  Co1  1  0.05000000  0.15000000  0.90000000  1
  Co  Co1  1  0.05000000  0.35000000  0.10000000  1
  Co  Co1  1  0.05000000  0.35000000  0.30000000  1
  Co  Co1  1  0.05000000  0.35000000  0.50000000  1
  Co  Co1  1  0.05000000  0.35000000  0.70000000  1
  Co  Co1  1  0.05000000  0.35000000  0.90000000  1
  Co  Co1  1  0.05000000  0.55000000  0.10000000  1
  Co  Co1  1  0.05000000  0.55000000  0.30000000  1
  Co  Co1  1  0.05000000  0.55000000  0.50000000  1
  Co  Co1  1  0.05000000  0.55000000  0.70000000  1
  Co  Co1  1  0.05000000  0.55000000  0.90000000  1
  Co  Co1  1  0.05000000  0.75000000  0.10000000  1
  Co  Co1  1  0.05000000  0.75000000  0.30000000  1
  Co  Co1  1  0.05000000  0.75000000  0.50000000  1
  Co  Co1  1  0.05000000  0.75000000  0.70000000  1
  Co  Co1  1  0.05000000  0.75000000  0.90000000  1
  Co  Co1  1  0.05000000  0.95000000  0.10000000  1
  Co  Co1  1  0.05000000  0.95000000  0.30000000  1
  Co  Co1  1  0.05000000  0.95000000  0.50000000  1
  Co  Co1  1  0.05000000  0.95000000  0.70000000  1
  Co  Co1  1  0.05000000  0.95000000  0.90000000  1
  Co  Co1  1  0.25000000  0.15000000  0.10000000  1
  Co  Co1  1  0.25000000  0.15000000  0.30000000  1
  Co  Co1  1  0.25000000  0.15000000  0.50000000  1
  Co  Co1  1  0.25000000  0.15000000  0.70000000  1
  Co  Co1  1  0.25000000  0.15000000  0.90000000  1
  Co  Co1  1  0.25000000  0.35000000  0.10000000  1
  Co  Co1  1  0.25000000  0.35000000  0.30000000  1
  Co  Co1  1  0.25000000  0.35000000  0.50000000  1
  Co  Co1  1  0.25000000  0.35000000  0.70000000  1
  Co  Co1  1  0.25000000  0.35000000  0.90000000  1
  Co  Co1  1  0.25000000  0.55000000  0.10000000  1
  Co  Co1  1  0.25000000  0.55000000  0.30000000  1
  Co  Co1  1  0.25000000  0.55000000  0.50000000  1
  Co  Co1  1  0.25000000  0.55000000  0.70000000  1
  Co  Co1  1  0.25000000  0.55000000  0.90000000  1
  Co  Co1  1  0.25000000  0.75000000  0.10000000  1
  Co  Co1  1  0.25000000  0.75000000  0.30000000  1
  Co  Co1  1  0.25000000  0.75000000  0.50000000  1
  Co  Co1  1  0.25000000  0.75000000  0.70000000  1
  Co  Co1  1  0.25000000  0.75000000  0.90000000  1
  Co  Co1  1  0.25000000  0.95000000  0.10000000  1
  Co  Co1  1  0.25000000  0.95000000  0.30000000  1
  Co  Co1  1  0.25000000  0.95000000  0.50000000  1
  Co  Co1  1  0.25000000  0.95000000  0.70000000  1
  Co  Co1  1  0.25000000  0.95000000  0.90000000  1
  Co  Co1  1  0.45000000  0.15000000  0.10000000  1
  Co  Co1  1  0.45000000  0.15000000  0.30000000  1
  Co  Co1  1  0.45000000  0.15000000  0.50000000  1
  Co  Co1  1  0.45000000  0.15000000  0.70000000  1
  Co  Co1  1  0.45000000  0.15000000  0.90000000  1
  Co  Co1  1  0.45000000  0.35000000  0.10000000  1
  Co  Co1  1  0.45000000  0.35000000  0.30000000  1
  Co  Co1  1  0.45000000  0.35000000  0.50000000  1
  Co  Co1  1  0.45000000  0.35000000  0.70000000  1
  Co  Co1  1  0.45000000  0.35000000  0.90000000  1
  Co  Co1  1  0.45000000  0.55000000  0.10000000  1
  Co  Co1  1  0.45000000  0.55000000  0.30000000  1
  Co  Co1  1  0.45000000  0.55000000  0.50000000  1
  Co  Co1  1  0.45000000  0.55000000  0.70000000  1
  Co  Co1  1  0.45000000  0.55000000  0.90000000  1
  Co  Co1  1  0.45000000  0.75000000  0.10000000  1
  Co  Co1  1  0.45000000  0.75000000  0.30000000  1
  Co  Co1  1  0.45000000  0.75000000  0.50000000  1
  Co  Co1  1  0.45000000  0.75000000  0.70000000  1
  Co  Co1  1  0.45000000  0.75000000  0.90000000  1
  Co  Co1  1  0.45000000  0.95000000  0.10000000  1
  Co  Co1  1  0.45000000  0.95000000  0.30000000  1
  Co  Co1  1  0.45000000  0.95000000  0.50000000  1
  Co  Co1  1  0.45000000  0.95000000  0.70000000  1
  Co  Co1  1  0.45000000  0.95000000  0.90000000  1
  Co  Co1  1  0.65000000  0.15000000  0.10000000  1
  Co  Co1  1  0.65000000  0.15000000  0.30000000  1
  Co  Co1  1  0.65000000  0.15000000  0.50000000  1
  Co  Co1  1  0.65000000  0.15000000  0.70000000  1
  Co  Co1  1  0.65000000  0.15000000  0.90000000  1
  Co  Co1  1  0.65000000  0.35000000  0.10000000  1
  Co  Co1  1  0.65000000  0.35000000  0.30000000  1
  Co  Co1  1  0.65000000  0.35000000  0.50000000  1
  Co  Co1  1  0.65000000  0.35000000  0.70000000  1
  Co  Co1  1  0.65000000  0.35000000  0.90000000  1
  Co  Co1  1  0.65000000  0.55000000  0.10000000  1
  Co  Co1  1  0.65000000  0.55000000  0.30000000  1
  Co  Co1  1  0.65000000  0.55000000  0.50000000  1
  Co  Co1  1  0.65000000  0.55000000  0.70000000  1
  Co  Co1  1  0.65000000  0.55000000  0.90000000  1
  Co  Co1  1  0.65000000  0.75000000  0.10000000  1
  Co  Co1  1  0.65000000  0.75000000  0.30000000  1
  Co  Co1  1  0.65000000  0.75000000  0.50000000  1
  Co  Co1  1  0.65000000  0.75000000  0.70000000  1
  Co  Co1  1  0.65000000  0.75000000  0.90000000  1
  Co  Co1  1  0.65000000  0.95000000  0.10000000  1
  Co  Co1  1  0.65000000  0.95000000  0.30000000  1
  Co  Co1  1  0.65000000  0.95000000  0.50000000  1
  Co  Co1  1  0.65000000  0.95000000  0.70000000  1
  Co  Co1  1  0.65000000  0.95000000  0.90000000  1
  Co  Co1  1  0.85000000  0.15000000  0.10000000  1
  Co  Co1  1  0.85000000  0.15000000  0.30000000  1
  Co  Co1  1  0.85000000  0.15000000  0.50000000  1
  Co  Co1  1  0.85000000  0.15000000  0.70000000  1
  Co  Co1  1  0.85000000  0.15000000  0.90000000  1
  Co  Co1  1  0.85000000  0.35000000  0.10000000  1
  Co  Co1  1  0.85000000  0.35000000  0.30000000  1
  Co  Co1  1  0.85000000  0.35000000  0.50000000  1
  Co  Co1  1  0.85000000  0.35000000  0.70000000  1
  Co  Co1  1  0.85000000  0.35000000  0.90000000  1
  Co  Co1  1  0.85000000  0.55000000  0.10000000  1
  Co  Co1  1  0.85000000  0.55000000  0.30000000  1
  Co  Co1  1  0.85000000  0.55000000  0.50000000  1
  Co  Co1  1  0.85000000  0.55000000  0.70000000  1
  Co  Co1  1  0.85000000  0.55000000  0.90000000  1
  Co  Co1  1  0.85000000  0.75000000  0.10000000  1
  Co  Co1  1  0.85000000  0.75000000  0.30000000  1
  Co  Co1  1  0.85000000  0.75000000  0.50000000  1
  Co  Co1  1  0.85000000  0.75000000  0.70000000  1
  Co  Co1  1  0.85000000  0.75000000  0.90000000  1
  Co  Co1  1  0.85000000  0.95000000  0.10000000  1
  Co  Co1  1  0.85000000  0.95000000  0.30000000  1
  Co  Co1  1  0.85000000  0.95000000  0.50000000  1
  Co  Co1  1  0.85000000  0.95000000  0.70000000  1
  Co  Co1  1  0.85000000  0.95000000  0.90000000  1
  Co  Co1  1  0.05000000  0.10000000  0.15000000  1
  Co  Co1  1  0.05000000  0.10000000  0.35000000  1
  Co  Co1  1  0.05000000  0.10000000  0.55000000  1
  Co  Co1  1  0.05000000  0.10000000  0.75000000  1
  Co  Co1  1  0.05000000  0.10000000  0.95000000  1
  Co  Co1  1  0.05000000  0.30000000  0.15000000  1
  Co  Co1  1  0.05000000  0.30000000  0.35000000  1
  Co  Co1  1  0.05000000  0.30000000  0.55000000  1
  Co  Co1  1  0.05000000  0.30000000  0.75000000  1
  Co  Co1  1  0.05000000  0.30000000  0.95000000  1
  Co  Co1  1  0.05000000  0.50000000  0.15000000  1
  Co  Co1  1  0.05000000  0.50000000  0.35000000  1
  Co  Co1  1  0.05000000  0.50000000  0.55000000  1
  Co  Co1  1  0.05000000  0.50000000  0.75000000  1
  Co  Co1  1  0.05000000  0.50000000  0.95000000  1
  Co  Co1  1  0.05000000  0.70000000  0.15000000  1
  Co  Co1  1  0.05000000  0.70000000  0.35000000  1
  Co  Co1  1  0.05000000  0.70000000  0.55000000  1
  Co  Co1  1  0.05000000  0.70000000  0.75000000  1
  Co  Co1  1  0.05000000  0.70000000  0.95000000  1
  Co  Co1  1  0.05000000  0.90000000  0.15000000  1
  Co  Co1  1  0.05000000  0.90000000  0.35000000  1
  Co  Co1  1  0.05000000  0.90000000  0.55000000  1
  Co  Co1  1  0.05000000  0.90000000  0.75000000  1
  Co  Co1  1  0.05000000  0.90000000  0.95000000  1
  Co  Co1  1  0.25000000  0.10000000  0.15000000  1
  Co  Co1  1  0.25000000  0.10000000  0.35000000  1
  Co  Co1  1  0.25000000  0.10000000  0.55000000  1
  Co  Co1  1  0.25000000  0.10000000  0.75000000  1
  Co  Co1  1  0.25000000  0.10000000  0.95000000  1
  Co  Co1  1  0.25000000  0.30000000  0.15000000  1
  Co  Co1  1  0.25000000  0.30000000  0.35000000  1
  Co  Co1  1  0.25000000  0.30000000  0.55000000  1
  Co  Co1  1  0.25000000  0.30000000  0.75000000  1
  Co  Co1  1  0.25000000  0.30000000  0.95000000  1
  Co  Co1  1  0.25000000  0.50000000  0.15000000  1
  Co  Co1  1  0.25000000  0.50000000  0.35000000  1
  Co  Co1  1  0.25000000  0.50000000  0.55000000  1
  Co  Co1  1  0.25000000  0.50000000  0.75000000  1
  Co  Co1  1  0.25000000  0.50000000  0.95000000  1
  Co  Co1  1  0.25000000  0.70000000  0.15000000  1
  Co  Co1  1  0.25000000  0.70000000  0.35000000  1
  Co  Co1  1  0.25000000  0.70000000  0.55000000  1
  Co  Co1  1  0.25000000  0.70000000  0.75000000  1
  Co  Co1  1  0.25000000  0.70000000  0.95000000  1
  Co  Co1  1  0.25000000  0.90000000  0.15000000  1
  Co  Co1  1  0.25000000  0.90000000  0.35000000  1
  Co  Co1  1  0.25000000  0.90000000  0.55000000  1
  Co  Co1  1  0.25000000  0.90000000  0.75000000  1
  Co  Co1  1  0.25000000  0.90000000  0.95000000  1
  Co  Co1  1  0.45000000  0.10000000  0.15000000  1
  Co  Co1  1  0.45000000  0.10000000  0.35000000  1
  Co  Co1  1  0.45000000  0.10000000  0.55000000  1
  Co  Co1  1  0.45000000  0.10000000  0.75000000  1
  Co  Co1  1  0.45000000  0.10000000  0.95000000  1
  Co  Co1  1  0.45000000  0.30000000  0.15000000  1
  Co  Co1  1  0.45000000  0.30000000  0.35000000  1
  Co  Co1  1  0.45000000  0.30000000  0.55000000  1
  Co  Co1  1  0.45000000  0.30000000  0.75000000  1
  Co  Co1  1  0.45000000  0.30000000  0.95000000  1
  Co  Co1  1  0.45000000  0.50000000  0.15000000  1
  Co  Co1  1  0.45000000  0.50000000  0.35000000  1
  Co  Co1  1  0.45000000  0.50000000  0.55000000  1
  Co  Co1  1  0.45000000  0.50000000  0.75000000  1
  Co  Co1  1  0.45000000  0.50000000  0.95000000  1
  Co  Co1  1  0.45000000  0.70000000  0.15000000  1
  Co  Co1  1  0.45000000  0.70000000  0.35000000  1
  Co  Co1  1  0.45000000  0.70000000  0.55000000  1
  Co  Co1  1  0.45000000  0.70000000  0.75000000  1
  Co  Co1  1  0.45000000  0.70000000  0.95000000  1
  Co  Co1  1  0.45000000  0.90000000  0.15000000  1
  Co  Co1  1  0.45000000  0.90000000  0.35000000  1
  Co  Co1  1  0.45000000  0.90000000  0.55000000  1
  Co  Co1  1  0.45000000  0.90000000  0.75000000  1
  Co  Co1  1  0.45000000  0.90000000  0.95000000  1
  Co  Co1  1  0.65000000  0.10000000  0.15000000  1
  Co  Co1  1  0.65000000  0.10000000  0.35000000  1
  Co  Co1  1  0.65000000  0.10000000  0.55000000  1
  Co  Co1  1  0.65000000  0.10000000  0.75000000  1
  Co  Co1  1  0.65000000  0.10000000  0.95000000  1
  Co  Co1  1  0.65000000  0.30000000  0.15000000  1
  Co  Co1  1  0.65000000  0.30000000  0.35000000  1
  Co  Co1  1  0.65000000  0.30000000  0.55000000  1
  Co  Co1  1  0.65000000  0.30000000  0.75000000  1
  Co  Co1  1  0.65000000  0.30000000  0.95000000  1
  Co  Co1  1  0.65000000  0.50000000  0.15000000  1
  Co  Co1  1  0.65000000  0.50000000  0.35000000  1
  Co  Co1  1  0.65000000  0.50000000  0.55000000  1
  Co  Co1  1  0.65000000  0.50000000  0.75000000  1
  Co  Co1  1  0.65000000  0.50000000  0.95000000  1
  Co  Co1  1  0.65000000  0.70000000  0.15000000  1
  Co  Co1  1  0.65000000  0.70000000  0.35000000  1
  Co  Co1  1  0.65000000  0.70000000  0.55000000  1
  Co  Co1  1  0.65000000  0.70000000  0.75000000  1
  Co  Co1  1  0.65000000  0.70000000  0.95000000  1
  Co  Co1  1  0.65000000  0.90000000  0.15000000  1
  Co  Co1  1  0.65000000  0.90000000  0.35000000  1
  Co  Co1  1  0.65000000  0.90000000  0.55000000  1
  Co  Co1  1  0.65000000  0.90000000  0.75000000  1
  Co  Co1  1  0.65000000  0.90000000  0.95000000  1
  Co  Co1  1  0.85000000  0.10000000  0.15000000  1
  Co  Co1  1  0.85000000  0.10000000  0.35000000  1
  Co  Co1  1  0.85000000  0.10000000  0.55000000  1
  Co  Co1  1  0.85000000  0.10000000  0.75000000  1
  Co  Co1  1  0.85000000  0.10000000  0.95000000  1
  Co  Co1  1  0.85000000  0.30000000  0.15000000  1
  Co  Co1  1  0.85000000  0.30000000  0.35000000  1
  Co  Co1  1  0.85000000  0.30000000  0.55000000  1
  Co  Co1  1  0.85000000  0.30000000  0.75000000  1
  Co  Co1  1  0.85000000  0.30000000  0.95000000  1
  Co  Co1  1  0.85000000  0.50000000  0.15000000  1
  Co  Co1  1  0.85000000  0.50000000  0.35000000  1
  Co  Co1  1  0.85000000  0.50000000  0.55000000  1
  Co  Co1  1  0.85000000  0.50000000  0.75000000  1
  Co  Co1  1  0.85000000  0.50000000  0.95000000  1
  Co  Co1  1  0.85000000  0.70000000  0.15000000  1
  Co  Co1  1  0.85000000  0.70000000  0.35000000  1
  Co  Co1  1  0.85000000  0.70000000  0.55000000  1
  Co  Co1  1  0.85000000  0.70000000  0.75000000  1
  Co  Co1  1  0.85000000  0.70000000  0.95000000  1
  Co  Co1  1  0.85000000  0.90000000  0.15000000  1
  Co  Co1  1  0.85000000  0.90000000  0.35000000  1
  Co  Co1  1  0.85000000  0.90000000  0.55000000  1
  Co  Co1  1  0.85000000  0.90000000  0.75000000  1
  Co  Co1  1  0.85000000  0.90000000  0.95000000  1
  Co  Co1  1  0.00000000  0.10000000  0.10000000  1
  Co  Co1  1  0.00000000  0.10000000  0.30000000  1
  Co  Co1  1  0.00000000  0.10000000  0.50000000  1
  Co  Co1  1  0.00000000  0.10000000  0.70000000  1
  Co  Co1  1  0.00000000  0.10000000  0.90000000  1
  Co  Co1  1  0.00000000  0.30000000  0.10000000  1
  Co  Co1  1  0.00000000  0.30000000  0.30000000  1
  Co  Co1  1  0.00000000  0.30000000  0.50000000  1
  Co  Co1  1  0.00000000  0.30000000  0.70000000  1
  Co  Co1  1  0.00000000  0.30000000  0.90000000  1
  Co  Co1  1  0.00000000  0.50000000  0.10000000  1
  Co  Co1  1  0.00000000  0.50000000  0.30000000  1
  Co  Co1  1  0.00000000  0.50000000  0.50000000  1
  Co  Co1  1  0.00000000  0.50000000  0.70000000  1
  Co  Co1  1  0.00000000  0.50000000  0.90000000  1
  Co  Co1  1  0.00000000  0.70000000  0.10000000  1
  Co  Co1  1  0.00000000  0.70000000  0.30000000  1
  Co  Co1  1  0.00000000  0.70000000  0.50000000  1
  Co  Co1  1  0.00000000  0.70000000  0.70000000  1
  Co  Co1  1  0.00000000  0.70000000  0.90000000  1
  Co  Co1  1  0.00000000  0.90000000  0.10000000  1
  Co  Co1  1  0.00000000  0.90000000  0.30000000  1
  Co  Co1  1  0.00000000  0.90000000  0.50000000  1
  Co  Co1  1  0.00000000  0.90000000  0.70000000  1
  Co  Co1  1  0.00000000  0.90000000  0.90000000  1
  Co  Co1  1  0.20000000  0.10000000  0.10000000  1
  Co  Co1  1  0.20000000  0.10000000  0.30000000  1
  Co  Co1  1  0.20000000  0.10000000  0.50000000  1
  Co  Co1  1  0.20000000  0.10000000  0.70000000  1
  Co  Co1  1  0.20000000  0.10000000  0.90000000  1
  Co  Co1  1  0.20000000  0.30000000  0.10000000  1
  Co  Co1  1  0.20000000  0.30000000  0.30000000  1
  Co  Co1  1  0.20000000  0.30000000  0.50000000  1
  Co  Co1  1  0.20000000  0.30000000  0.70000000  1
  Co  Co1  1  0.20000000  0.30000000  0.90000000  1
  Co  Co1  1  0.20000000  0.50000000  0.10000000  1
  Co  Co1  1  0.20000000  0.50000000  0.30000000  1
  Co  Co1  1  0.20000000  0.50000000  0.50000000  1
  Co  Co1  1  0.20000000  0.50000000  0.70000000  1
  Co  Co1  1  0.20000000  0.50000000  0.90000000  1
  Co  Co1  1  0.20000000  0.70000000  0.10000000  1
  Co  Co1  1  0.20000000  0.70000000  0.30000000  1
  Co  Co1  1  0.20000000  0.70000000  0.50000000  1
  Co  Co1  1  0.20000000  0.70000000  0.70000000  1
  Co  Co1  1  0.20000000  0.70000000  0.90000000  1
  Co  Co1  1  0.20000000  0.90000000  0.10000000  1
  Co  Co1  1  0.20000000  0.90000000  0.30000000  1
  Co  Co1  1  0.20000000  0.90000000  0.50000000  1
  Co  Co1  1  0.20000000  0.90000000  0.70000000  1
  Co  Co1  1  0.20000000  0.90000000  0.90000000  1
  Co  Co1  1  0.40000000  0.10000000  0.10000000  1
  Co  Co1  1  0.40000000  0.10000000  0.30000000  1
  Co  Co1  1  0.40000000  0.10000000  0.50000000  1
  Co  Co1  1  0.40000000  0.10000000  0.70000000  1
  Co  Co1  1  0.40000000  0.10000000  0.90000000  1
  Co  Co1  1  0.40000000  0.30000000  0.10000000  1
  Co  Co1  1  0.40000000  0.30000000  0.30000000  1
  Co  Co1  1  0.40000000  0.30000000  0.50000000  1
  Co  Co1  1  0.40000000  0.30000000  0.70000000  1
  Co  Co1  1  0.40000000  0.30000000  0.90000000  1
  Co  Co1  1  0.40000000  0.50000000  0.10000000  1
  Co  Co1  1  0.40000000  0.50000000  0.30000000  1
  Co  Co1  1  0.40000000  0.50000000  0.50000000  1
  Co  Co1  1  0.40000000  0.50000000  0.70000000  1
  Co  Co1  1  0.40000000  0.50000000  0.90000000  1
  Co  Co1  1  0.40000000  0.70000000  0.10000000  1
  Co  Co1  1  0.40000000  0.70000000  0.30000000  1
  Co  Co1  1  0.40000000  0.70000000  0.50000000  1
  Co  Co1  1  0.40000000  0.70000000  0.70000000  1
  Co  Co1  1  0.40000000  0.70000000  0.90000000  1
  Co  Co1  1  0.40000000  0.90000000  0.10000000  1
  Co  Co1  1  0.40000000  0.90000000  0.30000000  1
  Co  Co1  1  0.40000000  0.90000000  0.50000000  1
  Co  Co1  1  0.40000000  0.90000000  0.70000000  1
  Co  Co1  1  0.40000000  0.90000000  0.90000000  1
  Co  Co1  1  0.60000000  0.10000000  0.10000000  1
  Co  Co1  1  0.60000000  0.10000000  0.30000000  1
  Co  Co1  1  0.60000000  0.10000000  0.50000000  1
  Co  Co1  1  0.60000000  0.10000000  0.70000000  1
  Co  Co1  1  0.60000000  0.10000000  0.90000000  1
  Co  Co1  1  0.60000000  0.30000000  0.10000000  1
  Co  Co1  1  0.60000000  0.30000000  0.30000000  1
  Co  Co1  1  0.60000000  0.30000000  0.50000000  1
  Co  Co1  1  0.60000000  0.30000000  0.70000000  1
  Co  Co1  1  0.60000000  0.30000000  0.90000000  1
  Co  Co1  1  0.60000000  0.50000000  0.10000000  1
  Co  Co1  1  0.60000000  0.50000000  0.30000000  1
  Co  Co1  1  0.60000000  0.50000000  0.50000000  1
  Co  Co1  1  0.60000000  0.50000000  0.70000000  1
  Co  Co1  1  0.60000000  0.50000000  0.90000000  1
  Co  Co1  1  0.60000000  0.70000000  0.10000000  1
  Co  Co1  1  0.60000000  0.70000000  0.30000000  1
  Co  Co1  1  0.60000000  0.70000000  0.50000000  1
  Co  Co1  1  0.60000000  0.70000000  0.70000000  1
  Co  Co1  1  0.60000000  0.70000000  0.90000000  1
  Co  Co1  1  0.60000000  0.90000000  0.10000000  1
  Co  Co1  1  0.60000000  0.90000000  0.30000000  1
  Co  Co1  1  0.60000000  0.90000000  0.50000000  1
  Co  Co1  1  0.60000000  0.90000000  0.70000000  1
  Co  Co1  1  0.60000000  0.90000000  0.90000000  1
  Co  Co1  1  0.80000000  0.10000000  0.10000000  1
  Co  Co1  1  0.80000000  0.10000000  0.30000000  1
  Co  Co1  1  0.80000000  0.10000000  0.50000000  1
  Co  Co1  1  0.80000000  0.10000000  0.70000000  1
  Co  Co1  1  0.80000000  0.10000000  0.90000000  1
  Co  Co1  1  0.80000000  0.30000000  0.10000000  1
  Co  Co1  1  0.80000000  0.30000000  0.30000000  1
  Co  Co1  1  0.80000000  0.30000000  0.50000000  1
  Co  Co1  1  0.80000000  0.30000000  0.70000000  1
  Co  Co1  1  0.80000000  0.30000000  0.90000000  1
  Co  Co1  1  0.80000000  0.50000000  0.10000000  1
  Co  Co1  1  0.80000000  0.50000000  0.30000000  1
  Co  Co1  1  0.80000000  0.50000000  0.50000000  1
  Co  Co1  1  0.80000000  0.50000000  0.70000000  1
  Co  Co1  1  0.80000000  0.50000000  0.90000000  1
  Co  Co1  1  0.80000000  0.70000000  0.10000000  1
  Co  Co1  1  0.80000000  0.70000000  0.30000000  1
  Co  Co1  1  0.80000000  0.70000000  0.50000000  1
  Co  Co1  1  0.80000000  0.70000000  0.70000000  1
  Co  Co1  1  0.80000000  0.70000000  0.90000000  1
  Co  Co1  1  0.80000000  0.90000000  0.10000000  1
  Co  Co1  1  0.80000000  0.90000000  0.30000000  1
  Co  Co1  1  0.80000000  0.90000000  0.50000000  1
  Co  Co1  1  0.80000000  0.90000000  0.70000000  1
  Co  Co1  1  0.80000000  0.90000000  0.90000000  1
  Co  Co1  1  0.05000000  0.05000000  0.00000000  1
  Co  Co1  1  0.05000000  0.05000000  0.20000000  1
  Co  Co1  1  0.05000000  0.05000000  0.40000000  1
  Co  Co1  1  0.05000000  0.05000000  0.60000000  1
  Co  Co1  1  0.05000000  0.05000000  0.80000000  1
  Co  Co1  1  0.05000000  0.25000000  0.00000000  1
  Co  Co1  1  0.05000000  0.25000000  0.20000000  1
  Co  Co1  1  0.05000000  0.25000000  0.40000000  1
  Co  Co1  1  0.05000000  0.25000000  0.60000000  1
  Co  Co1  1  0.05000000  0.25000000  0.80000000  1
  Co  Co1  1  0.05000000  0.45000000  0.00000000  1
  Co  Co1  1  0.05000000  0.45000000  0.20000000  1
  Co  Co1  1  0.05000000  0.45000000  0.40000000  1
  Co  Co1  1  0.05000000  0.45000000  0.60000000  1
  Co  Co1  1  0.05000000  0.45000000  0.80000000  1
  Co  Co1  1  0.05000000  0.65000000  0.00000000  1
  Co  Co1  1  0.05000000  0.65000000  0.20000000  1
  Co  Co1  1  0.05000000  0.65000000  0.40000000  1
  Co  Co1  1  0.05000000  0.65000000  0.60000000  1
  Co  Co1  1  0.05000000  0.65000000  0.80000000  1
  Co  Co1  1  0.05000000  0.85000000  0.00000000  1
  Co  Co1  1  0.05000000  0.85000000  0.20000000  1
  Co  Co1  1  0.05000000  0.85000000  0.40000000  1
  Co  Co1  1  0.05000000  0.85000000  0.60000000  1
  Co  Co1  1  0.05000000  0.85000000  0.80000000  1
  Co  Co1  1  0.25000000  0.05000000  0.00000000  1
  Co  Co1  1  0.25000000  0.05000000  0.20000000  1
  Co  Co1  1  0.25000000  0.05000000  0.40000000  1
  Co  Co1  1  0.25000000  0.05000000  0.60000000  1
  Co  Co1  1  0.25000000  0.05000000  0.80000000  1
  Co  Co1  1  0.25000000  0.25000000  0.00000000  1
  Co  Co1  1  0.25000000  0.25000000  0.20000000  1
  Co  Co1  1  0.25000000  0.25000000  0.40000000  1
  Co  Co1  1  0.25000000  0.25000000  0.60000000  1
  Co  Co1  1  0.25000000  0.25000000  0.80000000  1
  Co  Co1  1  0.25000000  0.45000000  0.00000000  1
  Co  Co1  1  0.25000000  0.45000000  0.20000000  1
  Co  Co1  1  0.25000000  0.45000000  0.40000000  1
  Co  Co1  1  0.25000000  0.45000000  0.60000000  1
  Co  Co1  1  0.25000000  0.45000000  0.80000000  1
  Co  Co1  1  0.25000000  0.65000000  0.00000000  1
  Co  Co1  1  0.25000000  0.65000000  0.20000000  1
  Co  Co1  1  0.25000000  0.65000000  0.40000000  1
  Co  Co1  1  0.25000000  0.65000000  0.60000000  1
  Co  Co1  1  0.25000000  0.65000000  0.80000000  1
  Co  Co1  1  0.25000000  0.85000000  0.00000000  1
  Co  Co1  1  0.25000000  0.85000000  0.20000000  1
  Co  Co1  1  0.25000000  0.85000000  0.40000000  1
  Co  Co1  1  0.25000000  0.85000000  0.60000000  1
  Co  Co1  1  0.25000000  0.85000000  0.80000000  1
  Co  Co1  1  0.45000000  0.05000000  0.00000000  1
  Co  Co1  1  0.45000000  0.05000000  0.20000000  1
  Co  Co1  1  0.45000000  0.05000000  0.40000000  1
  Co  Co1  1  0.45000000  0.05000000  0.60000000  1
  Co  Co1  1  0.45000000  0.05000000  0.80000000  1
  Co  Co1  1  0.45000000  0.25000000  0.00000000  1
  Co  Co1  1  0.45000000  0.25000000  0.20000000  1
  Co  Co1  1  0.45000000  0.25000000  0.40000000  1
  Co  Co1  1  0.45000000  0.25000000  0.60000000  1
  Co  Co1  1  0.45000000  0.25000000  0.80000000  1
  Co  Co1  1  0.45000000  0.45000000  0.00000000  1
  Co  Co1  1  0.45000000  0.45000000  0.20000000  1
  Co  Co1  1  0.45000000  0.45000000  0.40000000  1
  Co  Co1  1  0.45000000  0.45000000  0.60000000  1
  Co  Co1  1  0.45000000  0.45000000  0.80000000  1
  Co  Co1  1  0.45000000  0.65000000  0.00000000  1
  Co  Co1  1  0.45000000  0.65000000  0.20000000  1
  Co  Co1  1  0.45000000  0.65000000  0.40000000  1
  Co  Co1  1  0.45000000  0.65000000  0.60000000  1
  Co  Co1  1  0.45000000  0.65000000  0.80000000  1
  Co  Co1  1  0.45000000  0.85000000  0.00000000  1
  Co  Co1  1  0.45000000  0.85000000  0.20000000  1
  Co  Co1  1  0.45000000  0.85000000  0.40000000  1
  Co  Co1  1  0.45000000  0.85000000  0.60000000  1
  Co  Co1  1  0.45000000  0.85000000  0.80000000  1
  Co  Co1  1  0.65000000  0.05000000  0.00000000  1
  Co  Co1  1  0.65000000  0.05000000  0.20000000  1
  Co  Co1  1  0.65000000  0.05000000  0.40000000  1
  Co  Co1  1  0.65000000  0.05000000  0.60000000  1
  Co  Co1  1  0.65000000  0.05000000  0.80000000  1
  Co  Co1  1  0.65000000  0.25000000  0.00000000  1
  Co  Co1  1  0.65000000  0.25000000  0.20000000  1
  Co  Co1  1  0.65000000  0.25000000  0.40000000  1
  Co  Co1  1  0.65000000  0.25000000  0.60000000  1
  Co  Co1  1  0.65000000  0.25000000  0.80000000  1
  Co  Co1  1  0.65000000  0.45000000  0.00000000  1
  Co  Co1  1  0.65000000  0.45000000  0.20000000  1
  Co  Co1  1  0.65000000  0.45000000  0.40000000  1
  Co  Co1  1  0.65000000  0.45000000  0.60000000  1
  Co  Co1  1  0.65000000  0.45000000  0.80000000  1
  Co  Co1  1  0.65000000  0.65000000  0.00000000  1
  Co  Co1  1  0.65000000  0.65000000  0.20000000  1
  Co  Co1  1  0.65000000  0.65000000  0.40000000  1
  Co  Co1  1  0.65000000  0.65000000  0.60000000  1
  Co  Co1  1  0.65000000  0.65000000  0.80000000  1
  Co  Co1  1  0.65000000  0.85000000  0.00000000  1
  Co  Co1  1  0.65000000  0.85000000  0.20000000  1
  Co  Co1  1  0.65000000  0.85000000  0.40000000  1
  Co  Co1  1  0.65000000  0.85000000  0.60000000  1
  Co  Co1  1  0.65000000  0.85000000  0.80000000  1
  Co  Co1  1  0.85000000  0.05000000  0.00000000  1
  Co  Co1  1  0.85000000  0.05000000  0.20000000  1
  Co  Co1  1  0.85000000  0.05000000  0.40000000  1
  Co  Co1  1  0.85000000  0.05000000  0.60000000  1
  Co  Co1  1  0.85000000  0.05000000  0.80000000  1
  Co  Co1  1  0.85000000  0.25000000  0.00000000  1
  Co  Co1  1  0.85000000  0.25000000  0.20000000  1
  Co  Co1  1  0.85000000  0.25000000  0.40000000  1
  Co  Co1  1  0.85000000  0.25000000  0.60000000  1
  Co  Co1  1  0.85000000  0.25000000  0.80000000  1
  Co  Co1  1  0.85000000  0.45000000  0.00000000  1
  Co  Co1  1  0.85000000  0.45000000  0.20000000  1
  Co  Co1  1  0.85000000  0.45000000  0.40000000  1
  Co  Co1  1  0.85000000  0.45000000  0.60000000  1
  Co  Co1  1  0.85000000  0.45000000  0.80000000  1
  Co  Co1  1  0.85000000  0.65000000  0.00000000  1
  Co  Co1  1  0.85000000  0.65000000  0.20000000  1
  Co  Co1  1  0.85000000  0.65000000  0.40000000  1
  Co  Co1  1  0.85000000  0.65000000  0.60000000  1
  Co  Co1  1  0.85000000  0.65000000  0.80000000  1
  Co  Co1  1  0.85000000  0.85000000  0.00000000  1
  Co  Co1  1  0.85000000  0.85000000  0.20000000  1
  Co  Co1  1  0.85000000  0.85000000  0.40000000  1
  Co  Co1  1  0.85000000  0.85000000  0.60000000  1
  Co  Co1  1  0.85000000  0.85000000  0.80000000  1
  Co  Co1  1  0.05000000  0.00000000  0.05000000  1
  Co  Co1  1  0.05000000  0.00000000  0.25000000  1
  Co  Co1  1  0.05000000  0.00000000  0.45000000  1
  Co  Co1  1  0.05000000  0.00000000  0.65000000  1
  Co  Co1  1  0.05000000  0.00000000  0.85000000  1
  Co  Co1  1  0.05000000  0.20000000  0.05000000  1
  Co  Co1  1  0.05000000  0.20000000  0.25000000  1
  Co  Co1  1  0.05000000  0.20000000  0.45000000  1
  Co  Co1  1  0.05000000  0.20000000  0.65000000  1
  Co  Co1  1  0.05000000  0.20000000  0.85000000  1
  Co  Co1  1  0.05000000  0.40000000  0.05000000  1
  Co  Co1  1  0.05000000  0.40000000  0.25000000  1
  Co  Co1  1  0.05000000  0.40000000  0.45000000  1
  Co  Co1  1  0.05000000  0.40000000  0.65000000  1
  Co  Co1  1  0.05000000  0.40000000  0.85000000  1
  Co  Co1  1  0.05000000  0.60000000  0.05000000  1
  Co  Co1  1  0.05000000  0.60000000  0.25000000  1
  Co  Co1  1  0.05000000  0.60000000  0.45000000  1
  Co  Co1  1  0.05000000  0.60000000  0.65000000  1
  Co  Co1  1  0.05000000  0.60000000  0.85000000  1
  Co  Co1  1  0.05000000  0.80000000  0.05000000  1
  Co  Co1  1  0.05000000  0.80000000  0.25000000  1
  Co  Co1  1  0.05000000  0.80000000  0.45000000  1
  Co  Co1  1  0.05000000  0.80000000  0.65000000  1
  Co  Co1  1  0.05000000  0.80000000  0.85000000  1
  Co  Co1  1  0.25000000  0.00000000  0.05000000  1
  Co  Co1  1  0.25000000  0.00000000  0.25000000  1
  Co  Co1  1  0.25000000  0.00000000  0.45000000  1
  Co  Co1  1  0.25000000  0.00000000  0.65000000  1
  Co  Co1  1  0.25000000  0.00000000  0.85000000  1
  Co  Co1  1  0.25000000  0.20000000  0.05000000  1
  Co  Co1  1  0.25000000  0.20000000  0.25000000  1
  Co  Co1  1  0.25000000  0.20000000  0.45000000  1
  Co  Co1  1  0.25000000  0.20000000  0.65000000  1
  Co  Co1  1  0.25000000  0.20000000  0.85000000  1
  Co  Co1  1  0.25000000  0.40000000  0.05000000  1
  Co  Co1  1  0.25000000  0.40000000  0.25000000  1
  Co  Co1  1  0.25000000  0.40000000  0.45000000  1
  Co  Co1  1  0.25000000  0.40000000  0.65000000  1
  Co  Co1  1  0.25000000  0.40000000  0.85000000  1
  Co  Co1  1  0.25000000  0.60000000  0.05000000  1
  Co  Co1  1  0.25000000  0.60000000  0.25000000  1
  Co  Co1  1  0.25000000  0.60000000  0.45000000  1
  Co  Co1  1  0.25000000  0.60000000  0.65000000  1
  Co  Co1  1  0.25000000  0.60000000  0.85000000  1
  Co  Co1  1  0.25000000  0.80000000  0.05000000  1
  Co  Co1  1  0.25000000  0.80000000  0.25000000  1
  Co  Co1  1  0.25000000  0.80000000  0.45000000  1
  Co  Co1  1  0.25000000  0.80000000  0.65000000  1
  Co  Co1  1  0.25000000  0.80000000  0.85000000  1
  Co  Co1  1  0.45000000  0.00000000  0.05000000  1
  Co  Co1  1  0.45000000  0.00000000  0.25000000  1
  Co  Co1  1  0.45000000  0.00000000  0.45000000  1
  Co  Co1  1  0.45000000  0.00000000  0.65000000  1
  Co  Co1  1  0.45000000  0.00000000  0.85000000  1
  Co  Co1  1  0.45000000  0.20000000  0.05000000  1
  Co  Co1  1  0.45000000  0.20000000  0.25000000  1
  Co  Co1  1  0.45000000  0.20000000  0.45000000  1
  Co  Co1  1  0.45000000  0.20000000  0.65000000  1
  Co  Co1  1  0.45000000  0.20000000  0.85000000  1
  Co  Co1  1  0.45000000  0.40000000  0.05000000  1
  Co  Co1  1  0.45000000  0.40000000  0.25000000  1
  Co  Co1  1  0.45000000  0.40000000  0.45000000  1
  Co  Co1  1  0.45000000  0.40000000  0.65000000  1
  Co  Co1  1  0.45000000  0.40000000  0.85000000  1
  Co  Co1  1  0.45000000  0.60000000  0.05000000  1
  Co  Co1  1  0.45000000  0.60000000  0.25000000  1
  Co  Co1  1  0.45000000  0.60000000  0.45000000  1
  Co  Co1  1  0.45000000  0.60000000  0.65000000  1
  Co  Co1  1  0.45000000  0.60000000  0.85000000  1
  Co  Co1  1  0.45000000  0.80000000  0.05000000  1
  Co  Co1  1  0.45000000  0.80000000  0.25000000  1
  Co  Co1  1  0.45000000  0.80000000  0.45000000  1
  Co  Co1  1  0.45000000  0.80000000  0.65000000  1
  Co  Co1  1  0.45000000  0.80000000  0.85000000  1
  Co  Co1  1  0.65000000  0.00000000  0.05000000  1
  Co  Co1  1  0.65000000  0.00000000  0.25000000  1
  Co  Co1  1  0.65000000  0.00000000  0.45000000  1
  Co  Co1  1  0.65000000  0.00000000  0.65000000  1
  Co  Co1  1  0.65000000  0.00000000  0.85000000  1
  Co  Co1  1  0.65000000  0.20000000  0.05000000  1
  Co  Co1  1  0.65000000  0.20000000  0.25000000  1
  Co  Co1  1  0.65000000  0.20000000  0.45000000  1
  Co  Co1  1  0.65000000  0.20000000  0.65000000  1
  Co  Co1  1  0.65000000  0.20000000  0.85000000  1
  Co  Co1  1  0.65000000  0.40000000  0.05000000  1
  Co  Co1  1  0.65000000  0.40000000  0.25000000  1
  Co  Co1  1  0.65000000  0.40000000  0.45000000  1
  Co  Co1  1  0.65000000  0.40000000  0.65000000  1
  Co  Co1  1  0.65000000  0.40000000  0.85000000  1
  Co  Co1  1  0.65000000  0.60000000  0.05000000  1
  Co  Co1  1  0.65000000  0.60000000  0.25000000  1
  Co  Co1  1  0.65000000  0.60000000  0.45000000  1
  Co  Co1  1  0.65000000  0.60000000  0.65000000  1
  Co  Co1  1  0.65000000  0.60000000  0.85000000  1
  Co  Co1  1  0.65000000  0.80000000  0.05000000  1
  Co  Co1  1  0.65000000  0.80000000  0.25000000  1
  Co  Co1  1  0.65000000  0.80000000  0.45000000  1
  Co  Co1  1  0.65000000  0.80000000  0.65000000  1
  Co  Co1  1  0.65000000  0.80000000  0.85000000  1
  Co  Co1  1  0.85000000  0.00000000  0.05000000  1
  Co  Co1  1  0.85000000  0.00000000  0.25000000  1
  Co  Co1  1  0.85000000  0.00000000  0.45000000  1
  Co  Co1  1  0.85000000  0.00000000  0.65000000  1
  Co  Co1  1  0.85000000  0.00000000  0.85000000  1
  Co  Co1  1  0.85000000  0.20000000  0.05000000  1
  Co  Co1  1  0.85000000  0.20000000  0.25000000  1
  Co  Co1  1  0.85000000  0.20000000  0.45000000  1
  Co  Co1  1  0.85000000  0.20000000  0.65000000  1
  Co  Co1  1  0.85000000  0.20000000  0.85000000  1
  Co  Co1  1  0.85000000  0.40000000  0.05000000  1
  Co  Co1  1  0.85000000  0.40000000  0.25000000  1
  Co  Co1  1  0.85000000  0.40000000  0.45000000  1
  Co  Co1  1  0.85000000  0.40000000  0.65000000  1
  Co  Co1  1  0.85000000  0.40000000  0.85000000  1
  Co  Co1  1  0.85000000  0.60000000  0.05000000  1
  Co  Co1  1  0.85000000  0.60000000  0.25000000  1
  Co  Co1  1  0.85000000  0.60000000  0.45000000  1
  Co  Co1  1  0.85000000  0.60000000  0.65000000  1
  Co  Co1  1  0.85000000  0.60000000  0.85000000  1
  Co  Co1  1  0.85000000  0.80000000  0.05000000  1
  Co  Co1  1  0.85000000  0.80000000  0.25000000  1
  Co  Co1  1  0.85000000  0.80000000  0.45000000  1
  Co  Co1  1  0.85000000  0.80000000  0.65000000  1
  Co  Co1  1  0.85000000  0.80000000  0.85000000  1
  Co  Co1  1  0.10000000  0.05000000  0.15000000  1
  Co  Co1  1  0.10000000  0.05000000  0.35000000  1
  Co  Co1  1  0.10000000  0.05000000  0.55000000  1
  Co  Co1  1  0.10000000  0.05000000  0.75000000  1
  Co  Co1  1  0.10000000  0.05000000  0.95000000  1
  Co  Co1  1  0.10000000  0.25000000  0.15000000  1
  Co  Co1  1  0.10000000  0.25000000  0.35000000  1
  Co  Co1  1  0.10000000  0.25000000  0.55000000  1
  Co  Co1  1  0.10000000  0.25000000  0.75000000  1
  Co  Co1  1  0.10000000  0.25000000  0.95000000  1
  Co  Co1  1  0.10000000  0.45000000  0.15000000  1
  Co  Co1  1  0.10000000  0.45000000  0.35000000  1
  Co  Co1  1  0.10000000  0.45000000  0.55000000  1
  Co  Co1  1  0.10000000  0.45000000  0.75000000  1
  Co  Co1  1  0.10000000  0.45000000  0.95000000  1
  Co  Co1  1  0.10000000  0.65000000  0.15000000  1
  Co  Co1  1  0.10000000  0.65000000  0.35000000  1
  Co  Co1  1  0.10000000  0.65000000  0.55000000  1
  Co  Co1  1  0.10000000  0.65000000  0.75000000  1
  Co  Co1  1  0.10000000  0.65000000  0.95000000  1
  Co  Co1  1  0.10000000  0.85000000  0.15000000  1
  Co  Co1  1  0.10000000  0.85000000  0.35000000  1
  Co  Co1  1  0.10000000  0.85000000  0.55000000  1
  Co  Co1  1  0.10000000  0.85000000  0.75000000  1
  Co  Co1  1  0.10000000  0.85000000  0.95000000  1
  Co  Co1  1  0.30000000  0.05000000  0.15000000  1
  Co  Co1  1  0.30000000  0.05000000  0.35000000  1
  Co  Co1  1  0.30000000  0.05000000  0.55000000  1
  Co  Co1  1  0.30000000  0.05000000  0.75000000  1
  Co  Co1  1  0.30000000  0.05000000  0.95000000  1
  Co  Co1  1  0.30000000  0.25000000  0.15000000  1
  Co  Co1  1  0.30000000  0.25000000  0.35000000  1
  Co  Co1  1  0.30000000  0.25000000  0.55000000  1
  Co  Co1  1  0.30000000  0.25000000  0.75000000  1
  Co  Co1  1  0.30000000  0.25000000  0.95000000  1
  Co  Co1  1  0.30000000  0.45000000  0.15000000  1
  Co  Co1  1  0.30000000  0.45000000  0.35000000  1
  Co  Co1  1  0.30000000  0.45000000  0.55000000  1
  Co  Co1  1  0.30000000  0.45000000  0.75000000  1
  Co  Co1  1  0.30000000  0.45000000  0.95000000  1
  Co  Co1  1  0.30000000  0.65000000  0.15000000  1
  Co  Co1  1  0.30000000  0.65000000  0.35000000  1
  Co  Co1  1  0.30000000  0.65000000  0.55000000  1
  Co  Co1  1  0.30000000  0.65000000  0.75000000  1
  Co  Co1  1  0.30000000  0.65000000  0.95000000  1
  Co  Co1  1  0.30000000  0.85000000  0.15000000  1
  Co  Co1  1  0.30000000  0.85000000  0.35000000  1
  Co  Co1  1  0.30000000  0.85000000  0.55000000  1
  Co  Co1  1  0.30000000  0.85000000  0.75000000  1
  Co  Co1  1  0.30000000  0.85000000  0.95000000  1
  Co  Co1  1  0.50000000  0.05000000  0.15000000  1
  Co  Co1  1  0.50000000  0.05000000  0.35000000  1
  Co  Co1  1  0.50000000  0.05000000  0.55000000  1
  Co  Co1  1  0.50000000  0.05000000  0.75000000  1
  Co  Co1  1  0.50000000  0.05000000  0.95000000  1
  Co  Co1  1  0.50000000  0.25000000  0.15000000  1
  Co  Co1  1  0.50000000  0.25000000  0.35000000  1
  Co  Co1  1  0.50000000  0.25000000  0.55000000  1
  Co  Co1  1  0.50000000  0.25000000  0.75000000  1
  Co  Co1  1  0.50000000  0.25000000  0.95000000  1
  Co  Co1  1  0.50000000  0.45000000  0.15000000  1
  Co  Co1  1  0.50000000  0.45000000  0.35000000  1
  Co  Co1  1  0.50000000  0.45000000  0.55000000  1
  Co  Co1  1  0.50000000  0.45000000  0.75000000  1
  Co  Co1  1  0.50000000  0.45000000  0.95000000  1
  Co  Co1  1  0.50000000  0.65000000  0.15000000  1
  Co  Co1  1  0.50000000  0.65000000  0.35000000  1
  Co  Co1  1  0.50000000  0.65000000  0.55000000  1
  Co  Co1  1  0.50000000  0.65000000  0.75000000  1
  Co  Co1  1  0.50000000  0.65000000  0.95000000  1
  Co  Co1  1  0.50000000  0.85000000  0.15000000  1
  Co  Co1  1  0.50000000  0.85000000  0.35000000  1
  Co  Co1  1  0.50000000  0.85000000  0.55000000  1
  Co  Co1  1  0.50000000  0.85000000  0.75000000  1
  Co  Co1  1  0.50000000  0.85000000  0.95000000  1
  Co  Co1  1  0.70000000  0.05000000  0.15000000  1
  Co  Co1  1  0.70000000  0.05000000  0.35000000  1
  Co  Co1  1  0.70000000  0.05000000  0.55000000  1
  Co  Co1  1  0.70000000  0.05000000  0.75000000  1
  Co  Co1  1  0.70000000  0.05000000  0.95000000  1
  Co  Co1  1  0.70000000  0.25000000  0.15000000  1
  Co  Co1  1  0.70000000  0.25000000  0.35000000  1
  Co  Co1  1  0.70000000  0.25000000  0.55000000  1
  Co  Co1  1  0.70000000  0.25000000  0.75000000  1
  Co  Co1  1  0.70000000  0.25000000  0.95000000  1
  Co  Co1  1  0.70000000  0.45000000  0.15000000  1
  Co  Co1  1  0.70000000  0.45000000  0.35000000  1
  Co  Co1  1  0.70000000  0.45000000  0.55000000  1
  Co  Co1  1  0.70000000  0.45000000  0.75000000  1
  Co  Co1  1  0.70000000  0.45000000  0.95000000  1
  Co  Co1  1  0.70000000  0.65000000  0.15000000  1
  Co  Co1  1  0.70000000  0.65000000  0.35000000  1
  Co  Co1  1  0.70000000  0.65000000  0.55000000  1
  Co  Co1  1  0.70000000  0.65000000  0.75000000  1
  Co  Co1  1  0.70000000  0.65000000  0.95000000  1
  Co  Co1  1  0.70000000  0.85000000  0.15000000  1
  Co  Co1  1  0.70000000  0.85000000  0.35000000  1
  Co  Co1  1  0.70000000  0.85000000  0.55000000  1
  Co  Co1  1  0.70000000  0.85000000  0.75000000  1
  Co  Co1  1  0.70000000  0.85000000  0.95000000  1
  Co  Co1  1  0.90000000  0.05000000  0.15000000  1
  Co  Co1  1  0.90000000  0.05000000  0.35000000  1
  Co  Co1  1  0.90000000  0.05000000  0.55000000  1
  Co  Co1  1  0.90000000  0.05000000  0.75000000  1
  Co  Co1  1  0.90000000  0.05000000  0.95000000  1
  Co  Co1  1  0.90000000  0.25000000  0.15000000  1
  Co  Co1  1  0.90000000  0.25000000  0.35000000  1
  Co  Co1  1  0.90000000  0.25000000  0.55000000  1
  Co  Co1  1  0.90000000  0.25000000  0.75000000  1
  Co  Co1  1  0.90000000  0.25000000  0.95000000  1
  Co  Co1  1  0.90000000  0.45000000  0.15000000  1
  Co  Co1  1  0.90000000  0.45000000  0.35000000  1
  Co  Co1  1  0.90000000  0.45000000  0.55000000  1
  Co  Co1  1  0.90000000  0.45000000  0.75000000  1
  Co  Co1  1  0.90000000  0.45000000  0.95000000  1
  Co  Co1  1  0.90000000  0.65000000  0.15000000  1
  Co  Co1  1  0.90000000  0.65000000  0.35000000  1
  Co  Co1  1  0.90000000  0.65000000  0.55000000  1
  Co  Co1  1  0.90000000  0.65000000  0.75000000  1
  Co  Co1  1  0.90000000  0.65000000  0.95000000  1
  Co  Co1  1  0.90000000  0.85000000  0.15000000  1
  Co  Co1  1  0.90000000  0.85000000  0.35000000  1
  Co  Co1  1  0.90000000  0.85000000  0.55000000  1
  Co  Co1  1  0.90000000  0.85000000  0.75000000  1
  Co  Co1  1  0.90000000  0.85000000  0.95000000  1
  Co  Co1  1  0.00000000  0.15000000  0.15000000  1
  Co  Co1  1  0.00000000  0.15000000  0.35000000  1
  Co  Co1  1  0.00000000  0.15000000  0.55000000  1
  Co  Co1  1  0.00000000  0.15000000  0.75000000  1
  Co  Co1  1  0.00000000  0.15000000  0.95000000  1
  Co  Co1  1  0.00000000  0.35000000  0.15000000  1
  Co  Co1  1  0.00000000  0.35000000  0.35000000  1
  Co  Co1  1  0.00000000  0.35000000  0.55000000  1
  Co  Co1  1  0.00000000  0.35000000  0.75000000  1
  Co  Co1  1  0.00000000  0.35000000  0.95000000  1
  Co  Co1  1  0.00000000  0.55000000  0.15000000  1
  Co  Co1  1  0.00000000  0.55000000  0.35000000  1
  Co  Co1  1  0.00000000  0.55000000  0.55000000  1
  Co  Co1  1  0.00000000  0.55000000  0.75000000  1
  Co  Co1  1  0.00000000  0.55000000  0.95000000  1
  Co  Co1  1  0.00000000  0.75000000  0.15000000  1
  Co  Co1  1  0.00000000  0.75000000  0.35000000  1
  Co  Co1  1  0.00000000  0.75000000  0.55000000  1
  Co  Co1  1  0.00000000  0.75000000  0.75000000  1
  Co  Co1  1  0.00000000  0.75000000  0.95000000  1
  Co  Co1  1  0.00000000  0.95000000  0.15000000  1
  Co  Co1  1  0.00000000  0.95000000  0.35000000  1
  Co  Co1  1  0.00000000  0.95000000  0.55000000  1
  Co  Co1  1  0.00000000  0.95000000  0.75000000  1
  Co  Co1  1  0.00000000  0.95000000  0.95000000  1
  Co  Co1  1  0.20000000  0.15000000  0.15000000  1
  Co  Co1  1  0.20000000  0.15000000  0.35000000  1
  Co  Co1  1  0.20000000  0.15000000  0.55000000  1
  Co  Co1  1  0.20000000  0.15000000  0.75000000  1
  Co  Co1  1  0.20000000  0.15000000  0.95000000  1
  Co  Co1  1  0.20000000  0.35000000  0.15000000  1
  Co  Co1  1  0.20000000  0.35000000  0.35000000  1
  Co  Co1  1  0.20000000  0.35000000  0.55000000  1
  Co  Co1  1  0.20000000  0.35000000  0.75000000  1
  Co  Co1  1  0.20000000  0.35000000  0.95000000  1
  Co  Co1  1  0.20000000  0.55000000  0.15000000  1
  Co  Co1  1  0.20000000  0.55000000  0.35000000  1
  Co  Co1  1  0.20000000  0.55000000  0.55000000  1
  Co  Co1  1  0.20000000  0.55000000  0.75000000  1
  Co  Co1  1  0.20000000  0.55000000  0.95000000  1
  Co  Co1  1  0.20000000  0.75000000  0.15000000  1
  Co  Co1  1  0.20000000  0.75000000  0.35000000  1
  Co  Co1  1  0.20000000  0.75000000  0.55000000  1
  Co  Co1  1  0.20000000  0.75000000  0.75000000  1
  Co  Co1  1  0.20000000  0.75000000  0.95000000  1
  Co  Co1  1  0.20000000  0.95000000  0.15000000  1
  Co  Co1  1  0.20000000  0.95000000  0.35000000  1
  Co  Co1  1  0.20000000  0.95000000  0.55000000  1
  Co  Co1  1  0.20000000  0.95000000  0.75000000  1
  Co  Co1  1  0.20000000  0.95000000  0.95000000  1
  Co  Co1  1  0.40000000  0.15000000  0.15000000  1
  Co  Co1  1  0.40000000  0.15000000  0.35000000  1
  Co  Co1  1  0.40000000  0.15000000  0.55000000  1
  Co  Co1  1  0.40000000  0.15000000  0.75000000  1
  Co  Co1  1  0.40000000  0.15000000  0.95000000  1
  Co  Co1  1  0.40000000  0.35000000  0.15000000  1
  Co  Co1  1  0.40000000  0.35000000  0.35000000  1
  Co  Co1  1  0.40000000  0.35000000  0.55000000  1
  Co  Co1  1  0.40000000  0.35000000  0.75000000  1
  Co  Co1  1  0.40000000  0.35000000  0.95000000  1
  Co  Co1  1  0.40000000  0.55000000  0.15000000  1
  Co  Co1  1  0.40000000  0.55000000  0.35000000  1
  Co  Co1  1  0.40000000  0.55000000  0.55000000  1
  Co  Co1  1  0.40000000  0.55000000  0.75000000  1
  Co  Co1  1  0.40000000  0.55000000  0.95000000  1
  Co  Co1  1  0.40000000  0.75000000  0.15000000  1
  Co  Co1  1  0.40000000  0.75000000  0.35000000  1
  Co  Co1  1  0.40000000  0.75000000  0.55000000  1
  Co  Co1  1  0.40000000  0.75000000  0.75000000  1
  Co  Co1  1  0.40000000  0.75000000  0.95000000  1
  Co  Co1  1  0.40000000  0.95000000  0.15000000  1
  Co  Co1  1  0.40000000  0.95000000  0.35000000  1
  Co  Co1  1  0.40000000  0.95000000  0.55000000  1
  Co  Co1  1  0.40000000  0.95000000  0.75000000  1
  Co  Co1  1  0.40000000  0.95000000  0.95000000  1
  Co  Co1  1  0.60000000  0.15000000  0.15000000  1
  Co  Co1  1  0.60000000  0.15000000  0.35000000  1
  Co  Co1  1  0.60000000  0.15000000  0.55000000  1
  Co  Co1  1  0.60000000  0.15000000  0.75000000  1
  Co  Co1  1  0.60000000  0.15000000  0.95000000  1
  Co  Co1  1  0.60000000  0.35000000  0.15000000  1
  Co  Co1  1  0.60000000  0.35000000  0.35000000  1
  Co  Co1  1  0.60000000  0.35000000  0.55000000  1
  Co  Co1  1  0.60000000  0.35000000  0.75000000  1
  Co  Co1  1  0.60000000  0.35000000  0.95000000  1
  Co  Co1  1  0.60000000  0.55000000  0.15000000  1
  Co  Co1  1  0.60000000  0.55000000  0.35000000  1
  Co  Co1  1  0.60000000  0.55000000  0.55000000  1
  Co  Co1  1  0.60000000  0.55000000  0.75000000  1
  Co  Co1  1  0.60000000  0.55000000  0.95000000  1
  Co  Co1  1  0.60000000  0.75000000  0.15000000  1
  Co  Co1  1  0.60000000  0.75000000  0.35000000  1
  Co  Co1  1  0.60000000  0.75000000  0.55000000  1
  Co  Co1  1  0.60000000  0.75000000  0.75000000  1
  Co  Co1  1  0.60000000  0.75000000  0.95000000  1
  Co  Co1  1  0.60000000  0.95000000  0.15000000  1
  Co  Co1  1  0.60000000  0.95000000  0.35000000  1
  Co  Co1  1  0.60000000  0.95000000  0.55000000  1
  Co  Co1  1  0.60000000  0.95000000  0.75000000  1
  Co  Co1  1  0.60000000  0.95000000  0.95000000  1
  Co  Co1  1  0.80000000  0.15000000  0.15000000  1
  Co  Co1  1  0.80000000  0.15000000  0.35000000  1
  Co  Co1  1  0.80000000  0.15000000  0.55000000  1
  Co  Co1  1  0.80000000  0.15000000  0.75000000  1
  Co  Co1  1  0.80000000  0.15000000  0.95000000  1
  Co  Co1  1  0.80000000  0.35000000  0.15000000  1
  Co  Co1  1  0.80000000  0.35000000  0.35000000  1
  Co  Co1  1  0.80000000  0.35000000  0.55000000  1
  Co  Co1  1  0.80000000  0.35000000  0.75000000  1
  Co  Co1  1  0.80000000  0.35000000  0.95000000  1
  Co  Co1  1  0.80000000  0.55000000  0.15000000  1
  Co  Co1  1  0.80000000  0.55000000  0.35000000  1
  Co  Co1  1  0.80000000  0.55000000  0.55000000  1
  Co  Co1  1  0.80000000  0.55000000  0.75000000  1
  Co  Co1  1  0.80000000  0.55000000  0.95000000  1
  Co  Co1  1  0.80000000  0.75000000  0.15000000  1
  Co  Co1  1  0.80000000  0.75000000  0.35000000  1
  Co  Co1  1  0.80000000  0.75000000  0.55000000  1
  Co  Co1  1  0.80000000  0.75000000  0.75000000  1
  Co  Co1  1  0.80000000  0.75000000  0.95000000  1
  Co  Co1  1  0.80000000  0.95000000  0.15000000  1
  Co  Co1  1  0.80000000  0.95000000  0.35000000  1
  Co  Co1  1  0.80000000  0.95000000  0.55000000  1
  Co  Co1  1  0.80000000  0.95000000  0.75000000  1
  Co  Co1  1  0.80000000  0.95000000  0.95000000  1
  Co  Co1  1  0.15000000  0.10000000  0.05000000  1
  Co  Co1  1  0.15000000  0.10000000  0.25000000  1
  Co  Co1  1  0.15000000  0.10000000  0.45000000  1
  Co  Co1  1  0.15000000  0.10000000  0.65000000  1
  Co  Co1  1  0.15000000  0.10000000  0.85000000  1
  Co  Co1  1  0.15000000  0.30000000  0.05000000  1
  Co  Co1  1  0.15000000  0.30000000  0.25000000  1
  Co  Co1  1  0.15000000  0.30000000  0.45000000  1
  Co  Co1  1  0.15000000  0.30000000  0.65000000  1
  Co  Co1  1  0.15000000  0.30000000  0.85000000  1
  Co  Co1  1  0.15000000  0.50000000  0.05000000  1
  Co  Co1  1  0.15000000  0.50000000  0.25000000  1
  Co  Co1  1  0.15000000  0.50000000  0.45000000  1
  Co  Co1  1  0.15000000  0.50000000  0.65000000  1
  Co  Co1  1  0.15000000  0.50000000  0.85000000  1
  Co  Co1  1  0.15000000  0.70000000  0.05000000  1
  Co  Co1  1  0.15000000  0.70000000  0.25000000  1
  Co  Co1  1  0.15000000  0.70000000  0.45000000  1
  Co  Co1  1  0.15000000  0.70000000  0.65000000  1
  Co  Co1  1  0.15000000  0.70000000  0.85000000  1
  Co  Co1  1  0.15000000  0.90000000  0.05000000  1
  Co  Co1  1  0.15000000  0.90000000  0.25000000  1
  Co  Co1  1  0.15000000  0.90000000  0.45000000  1
  Co  Co1  1  0.15000000  0.90000000  0.65000000  1
  Co  Co1  1  0.15000000  0.90000000  0.85000000  1
  Co  Co1  1  0.35000000  0.10000000  0.05000000  1
  Co  Co1  1  0.35000000  0.10000000  0.25000000  1
  Co  Co1  1  0.35000000  0.10000000  0.45000000  1
  Co  Co1  1  0.35000000  0.10000000  0.65000000  1
  Co  Co1  1  0.35000000  0.10000000  0.85000000  1
  Co  Co1  1  0.35000000  0.30000000  0.05000000  1
  Co  Co1  1  0.35000000  0.30000000  0.25000000  1
  Co  Co1  1  0.35000000  0.30000000  0.45000000  1
  Co  Co1  1  0.35000000  0.30000000  0.65000000  1
  Co  Co1  1  0.35000000  0.30000000  0.85000000  1
  Co  Co1  1  0.35000000  0.50000000  0.05000000  1
  Co  Co1  1  0.35000000  0.50000000  0.25000000  1
  Co  Co1  1  0.35000000  0.50000000  0.45000000  1
  Co  Co1  1  0.35000000  0.50000000  0.65000000  1
  Co  Co1  1  0.35000000  0.50000000  0.85000000  1
  Co  Co1  1  0.35000000  0.70000000  0.05000000  1
  Co  Co1  1  0.35000000  0.70000000  0.25000000  1
  Co  Co1  1  0.35000000  0.70000000  0.45000000  1
  Co  Co1  1  0.35000000  0.70000000  0.65000000  1
  Co  Co1  1  0.35000000  0.70000000  0.85000000  1
  Co  Co1  1  0.35000000  0.90000000  0.05000000  1
  Co  Co1  1  0.35000000  0.90000000  0.25000000  1
  Co  Co1  1  0.35000000  0.90000000  0.45000000  1
  Co  Co1  1  0.35000000  0.90000000  0.65000000  1
  Co  Co1  1  0.35000000  0.90000000  0.85000000  1
  Co  Co1  1  0.55000000  0.10000000  0.05000000  1
  Co  Co1  1  0.55000000  0.10000000  0.25000000  1
  Co  Co1  1  0.55000000  0.10000000  0.45000000  1
  Co  Co1  1  0.55000000  0.10000000  0.65000000  1
  Co  Co1  1  0.55000000  0.10000000  0.85000000  1
  Co  Co1  1  0.55000000  0.30000000  0.05000000  1
  Co  Co1  1  0.55000000  0.30000000  0.25000000  1
  Co  Co1  1  0.55000000  0.30000000  0.45000000  1
  Co  Co1  1  0.55000000  0.30000000  0.65000000  1
  Co  Co1  1  0.55000000  0.30000000  0.85000000  1
  Co  Co1  1  0.55000000  0.50000000  0.05000000  1
  Co  Co1  1  0.55000000  0.50000000  0.25000000  1
  Co  Co1  1  0.55000000  0.50000000  0.45000000  1
  Co  Co1  1  0.55000000  0.50000000  0.65000000  1
  Co  Co1  1  0.55000000  0.50000000  0.85000000  1
  Co  Co1  1  0.55000000  0.70000000  0.05000000  1
  Co  Co1  1  0.55000000  0.70000000  0.25000000  1
  Co  Co1  1  0.55000000  0.70000000  0.45000000  1
  Co  Co1  1  0.55000000  0.70000000  0.65000000  1
  Co  Co1  1  0.55000000  0.70000000  0.85000000  1
  Co  Co1  1  0.55000000  0.90000000  0.05000000  1
  Co  Co1  1  0.55000000  0.90000000  0.25000000  1
  Co  Co1  1  0.55000000  0.90000000  0.45000000  1
  Co  Co1  1  0.55000000  0.90000000  0.65000000  1
  Co  Co1  1  0.55000000  0.90000000  0.85000000  1
  Co  Co1  1  0.75000000  0.10000000  0.05000000  1
  Co  Co1  1  0.75000000  0.10000000  0.25000000  1
  Co  Co1  1  0.75000000  0.10000000  0.45000000  1
  Co  Co1  1  0.75000000  0.10000000  0.65000000  1
  Co  Co1  1  0.75000000  0.10000000  0.85000000  1
  Co  Co1  1  0.75000000  0.30000000  0.05000000  1
  Co  Co1  1  0.75000000  0.30000000  0.25000000  1
  Co  Co1  1  0.75000000  0.30000000  0.45000000  1
  Co  Co1  1  0.75000000  0.30000000  0.65000000  1
  Co  Co1  1  0.75000000  0.30000000  0.85000000  1
  Co  Co1  1  0.75000000  0.50000000  0.05000000  1
  Co  Co1  1  0.75000000  0.50000000  0.25000000  1
  Co  Co1  1  0.75000000  0.50000000  0.45000000  1
  Co  Co1  1  0.75000000  0.50000000  0.65000000  1
  Co  Co1  1  0.75000000  0.50000000  0.85000000  1
  Co  Co1  1  0.75000000  0.70000000  0.05000000  1
  Co  Co1  1  0.75000000  0.70000000  0.25000000  1
  Co  Co1  1  0.75000000  0.70000000  0.45000000  1
  Co  Co1  1  0.75000000  0.70000000  0.65000000  1
  Co  Co1  1  0.75000000  0.70000000  0.85000000  1
  Co  Co1  1  0.75000000  0.90000000  0.05000000  1
  Co  Co1  1  0.75000000  0.90000000  0.25000000  1
  Co  Co1  1  0.75000000  0.90000000  0.45000000  1
  Co  Co1  1  0.75000000  0.90000000  0.65000000  1
  Co  Co1  1  0.75000000  0.90000000  0.85000000  1
  Co  Co1  1  0.95000000  0.10000000  0.05000000  1
  Co  Co1  1  0.95000000  0.10000000  0.25000000  1
  Co  Co1  1  0.95000000  0.10000000  0.45000000  1
  Co  Co1  1  0.95000000  0.10000000  0.65000000  1
  Co  Co1  1  0.95000000  0.10000000  0.85000000  1
  Co  Co1  1  0.95000000  0.30000000  0.05000000  1
  Co  Co1  1  0.95000000  0.30000000  0.25000000  1
  Co  Co1  1  0.95000000  0.30000000  0.45000000  1
  Co  Co1  1  0.95000000  0.30000000  0.65000000  1
  Co  Co1  1  0.95000000  0.30000000  0.85000000  1
  Co  Co1  1  0.95000000  0.50000000  0.05000000  1
  Co  Co1  1  0.95000000  0.50000000  0.25000000  1
  Co  Co1  1  0.95000000  0.50000000  0.45000000  1
  Co  Co1  1  0.95000000  0.50000000  0.65000000  1
  Co  Co1  1  0.95000000  0.50000000  0.85000000  1
  Co  Co1  1  0.95000000  0.70000000  0.05000000  1
  Co  Co1  1  0.95000000  0.70000000  0.25000000  1
  Co  Co1  1  0.95000000  0.70000000  0.45000000  1
  Co  Co1  1  0.95000000  0.70000000  0.65000000  1
  Co  Co1  1  0.95000000  0.70000000  0.85000000  1
  Co  Co1  1  0.95000000  0.90000000  0.05000000  1
  Co  Co1  1  0.95000000  0.90000000  0.25000000  1
  Co  Co1  1  0.95000000  0.90000000  0.45000000  1
  Co  Co1  1  0.95000000  0.90000000  0.65000000  1
  Co  Co1  1  0.95000000  0.90000000  0.85000000  1
  Co  Co1  1  0.15000000  0.15000000  0.00000000  1
  Co  Co1  1  0.15000000  0.15000000  0.20000000  1
  Co  Co1  1  0.15000000  0.15000000  0.40000000  1
  Co  Co1  1  0.15000000  0.15000000  0.60000000  1
  Co  Co1  1  0.15000000  0.15000000  0.80000000  1
  Co  Co1  1  0.15000000  0.35000000  0.00000000  1
  Co  Co1  1  0.15000000  0.35000000  0.20000000  1
  Co  Co1  1  0.15000000  0.35000000  0.40000000  1
  Co  Co1  1  0.15000000  0.35000000  0.60000000  1
  Co  Co1  1  0.15000000  0.35000000  0.80000000  1
  Co  Co1  1  0.15000000  0.55000000  0.00000000  1
  Co  Co1  1  0.15000000  0.55000000  0.20000000  1
  Co  Co1  1  0.15000000  0.55000000  0.40000000  1
  Co  Co1  1  0.15000000  0.55000000  0.60000000  1
  Co  Co1  1  0.15000000  0.55000000  0.80000000  1
  Co  Co1  1  0.15000000  0.75000000  0.00000000  1
  Co  Co1  1  0.15000000  0.75000000  0.20000000  1
  Co  Co1  1  0.15000000  0.75000000  0.40000000  1
  Co  Co1  1  0.15000000  0.75000000  0.60000000  1
  Co  Co1  1  0.15000000  0.75000000  0.80000000  1
  Co  Co1  1  0.15000000  0.95000000  0.00000000  1
  Co  Co1  1  0.15000000  0.95000000  0.20000000  1
  Co  Co1  1  0.15000000  0.95000000  0.40000000  1
  Co  Co1  1  0.15000000  0.95000000  0.60000000  1
  Co  Co1  1  0.15000000  0.95000000  0.80000000  1
  Co  Co1  1  0.35000000  0.15000000  0.00000000  1
  Co  Co1  1  0.35000000  0.15000000  0.20000000  1
  Co  Co1  1  0.35000000  0.15000000  0.40000000  1
  Co  Co1  1  0.35000000  0.15000000  0.60000000  1
  Co  Co1  1  0.35000000  0.15000000  0.80000000  1
  Co  Co1  1  0.35000000  0.35000000  0.00000000  1
  Co  Co1  1  0.35000000  0.35000000  0.20000000  1
  Co  Co1  1  0.35000000  0.35000000  0.40000000  1
  Co  Co1  1  0.35000000  0.35000000  0.60000000  1
  Co  Co1  1  0.35000000  0.35000000  0.80000000  1
  Co  Co1  1  0.35000000  0.55000000  0.00000000  1
  Co  Co1  1  0.35000000  0.55000000  0.20000000  1
  Co  Co1  1  0.35000000  0.55000000  0.40000000  1
  Co  Co1  1  0.35000000  0.55000000  0.60000000  1
  Co  Co1  1  0.35000000  0.55000000  0.80000000  1
  Co  Co1  1  0.35000000  0.75000000  0.00000000  1
  Co  Co1  1  0.35000000  0.75000000  0.20000000  1
  Co  Co1  1  0.35000000  0.75000000  0.40000000  1
  Co  Co1  1  0.35000000  0.75000000  0.60000000  1
  Co  Co1  1  0.35000000  0.75000000  0.80000000  1
  Co  Co1  1  0.35000000  0.95000000  0.00000000  1
  Co  Co1  1  0.35000000  0.95000000  0.20000000  1
  Co  Co1  1  0.35000000  0.95000000  0.40000000  1
  Co  Co1  1  0.35000000  0.95000000  0.60000000  1
  Co  Co1  1  0.35000000  0.95000000  0.80000000  1
  Co  Co1  1  0.55000000  0.15000000  0.00000000  1
  Co  Co1  1  0.55000000  0.15000000  0.20000000  1
  Co  Co1  1  0.55000000  0.15000000  0.40000000  1
  Co  Co1  1  0.55000000  0.15000000  0.60000000  1
  Co  Co1  1  0.55000000  0.15000000  0.80000000  1
  Co  Co1  1  0.55000000  0.35000000  0.00000000  1
  Co  Co1  1  0.55000000  0.35000000  0.20000000  1
  Co  Co1  1  0.55000000  0.35000000  0.40000000  1
  Co  Co1  1  0.55000000  0.35000000  0.60000000  1
  Co  Co1  1  0.55000000  0.35000000  0.80000000  1
  Co  Co1  1  0.55000000  0.55000000  0.00000000  1
  Co  Co1  1  0.55000000  0.55000000  0.20000000  1
  Co  Co1  1  0.55000000  0.55000000  0.40000000  1
  Co  Co1  1  0.55000000  0.55000000  0.60000000  1
  Co  Co1  1  0.55000000  0.55000000  0.80000000  1
  Co  Co1  1  0.55000000  0.75000000  0.00000000  1
  Co  Co1  1  0.55000000  0.75000000  0.20000000  1
  Co  Co1  1  0.55000000  0.75000000  0.40000000  1
  Co  Co1  1  0.55000000  0.75000000  0.60000000  1
  Co  Co1  1  0.55000000  0.75000000  0.80000000  1
  Co  Co1  1  0.55000000  0.95000000  0.00000000  1
  Co  Co1  1  0.55000000  0.95000000  0.20000000  1
  Co  Co1  1  0.55000000  0.95000000  0.40000000  1
  Co  Co1  1  0.55000000  0.95000000  0.60000000  1
  Co  Co1  1  0.55000000  0.95000000  0.80000000  1
  Co  Co1  1  0.75000000  0.15000000  0.00000000  1
  Co  Co1  1  0.75000000  0.15000000  0.20000000  1
  Co  Co1  1  0.75000000  0.15000000  0.40000000  1
  Co  Co1  1  0.75000000  0.15000000  0.60000000  1
  Co  Co1  1  0.75000000  0.15000000  0.80000000  1
  Co  Co1  1  0.75000000  0.35000000  0.00000000  1
  Co  Co1  1  0.75000000  0.35000000  0.20000000  1
  Co  Co1  1  0.75000000  0.35000000  0.40000000  1
  Co  Co1  1  0.75000000  0.35000000  0.60000000  1
  Co  Co1  1  0.75000000  0.35000000  0.80000000  1
  Co  Co1  1  0.75000000  0.55000000  0.00000000  1
  Co  Co1  1  0.75000000  0.55000000  0.20000000  1
  Co  Co1  1  0.75000000  0.55000000  0.40000000  1
  Co  Co1  1  0.75000000  0.55000000  0.60000000  1
  Co  Co1  1  0.75000000  0.55000000  0.80000000  1
  Co  Co1  1  0.75000000  0.75000000  0.00000000  1
  Co  Co1  1  0.75000000  0.75000000  0.20000000  1
  Co  Co1  1  0.75000000  0.75000000  0.40000000  1
  Co  Co1  1  0.75000000  0.75000000  0.60000000  1
  Co  Co1  1  0.75000000  0.75000000  0.80000000  1
  Co  Co1  1  0.75000000  0.95000000  0.00000000  1
  Co  Co1  1  0.75000000  0.95000000  0.20000000  1
  Co  Co1  1  0.75000000  0.95000000  0.40000000  1
  Co  Co1  1  0.75000000  0.95000000  0.60000000  1
  Co  Co1  1  0.75000000  0.95000000  0.80000000  1
  Co  Co1  1  0.95000000  0.15000000  0.00000000  1
  Co  Co1  1  0.95000000  0.15000000  0.20000000  1
  Co  Co1  1  0.95000000  0.15000000  0.40000000  1
  Co  Co1  1  0.95000000  0.15000000  0.60000000  1
  Co  Co1  1  0.95000000  0.15000000  0.80000000  1
  Co  Co1  1  0.95000000  0.35000000  0.00000000  1
  Co  Co1  1  0.95000000  0.35000000  0.20000000  1
  Co  Co1  1  0.95000000  0.35000000  0.40000000  1
  Co  Co1  1  0.95000000  0.35000000  0.60000000  1
  Co  Co1  1  0.95000000  0.35000000  0.80000000  1
  Co  Co1  1  0.95000000  0.55000000  0.00000000  1
  Co  Co1  1  0.95000000  0.55000000  0.20000000  1
  Co  Co1  1  0.95000000  0.55000000  0.40000000  1
  Co  Co1  1  0.95000000  0.55000000  0.60000000  1
  Co  Co1  1  0.95000000  0.55000000  0.80000000  1
  Co  Co1  1  0.95000000  0.75000000  0.00000000  1
  Co  Co1  1  0.95000000  0.75000000  0.20000000  1
  Co  Co1  1  0.95000000  0.75000000  0.40000000  1
  Co  Co1  1  0.95000000  0.75000000  0.60000000  1
  Co  Co1  1  0.95000000  0.75000000  0.80000000  1
  Co  Co1  1  0.95000000  0.95000000  0.00000000  1
  Co  Co1  1  0.95000000  0.95000000  0.20000000  1
  Co  Co1  1  0.95000000  0.95000000  0.40000000  1
  Co  Co1  1  0.95000000  0.95000000  0.60000000  1
  Co  Co1  1  0.95000000  0.95000000  0.80000000  1
  Co  Co1  1  0.10000000  0.00000000  0.10000000  1
  Co  Co1  1  0.10000000  0.00000000  0.30000000  1
  Co  Co1  1  0.10000000  0.00000000  0.50000000  1
  Co  Co1  1  0.10000000  0.00000000  0.70000000  1
  Co  Co1  1  0.10000000  0.00000000  0.90000000  1
  Co  Co1  1  0.10000000  0.20000000  0.10000000  1
  Co  Co1  1  0.10000000  0.20000000  0.30000000  1
  Co  Co1  1  0.10000000  0.20000000  0.50000000  1
  Co  Co1  1  0.10000000  0.20000000  0.70000000  1
  Co  Co1  1  0.10000000  0.20000000  0.90000000  1
  Co  Co1  1  0.10000000  0.40000000  0.10000000  1
  Co  Co1  1  0.10000000  0.40000000  0.30000000  1
  Co  Co1  1  0.10000000  0.40000000  0.50000000  1
  Co  Co1  1  0.10000000  0.40000000  0.70000000  1
  Co  Co1  1  0.10000000  0.40000000  0.90000000  1
  Co  Co1  1  0.10000000  0.60000000  0.10000000  1
  Co  Co1  1  0.10000000  0.60000000  0.30000000  1
  Co  Co1  1  0.10000000  0.60000000  0.50000000  1
  Co  Co1  1  0.10000000  0.60000000  0.70000000  1
  Co  Co1  1  0.10000000  0.60000000  0.90000000  1
  Co  Co1  1  0.10000000  0.80000000  0.10000000  1
  Co  Co1  1  0.10000000  0.80000000  0.30000000  1
  Co  Co1  1  0.10000000  0.80000000  0.50000000  1
  Co  Co1  1  0.10000000  0.80000000  0.70000000  1
  Co  Co1  1  0.10000000  0.80000000  0.90000000  1
  Co  Co1  1  0.30000000  0.00000000  0.10000000  1
  Co  Co1  1  0.30000000  0.00000000  0.30000000  1
  Co  Co1  1  0.30000000  0.00000000  0.50000000  1
  Co  Co1  1  0.30000000  0.00000000  0.70000000  1
  Co  Co1  1  0.30000000  0.00000000  0.90000000  1
  Co  Co1  1  0.30000000  0.20000000  0.10000000  1
  Co  Co1  1  0.30000000  0.20000000  0.30000000  1
  Co  Co1  1  0.30000000  0.20000000  0.50000000  1
  Co  Co1  1  0.30000000  0.20000000  0.70000000  1
  Co  Co1  1  0.30000000  0.20000000  0.90000000  1
  Co  Co1  1  0.30000000  0.40000000  0.10000000  1
  Co  Co1  1  0.30000000  0.40000000  0.30000000  1
  Co  Co1  1  0.30000000  0.40000000  0.50000000  1
  Co  Co1  1  0.30000000  0.40000000  0.70000000  1
  Co  Co1  1  0.30000000  0.40000000  0.90000000  1
  Co  Co1  1  0.30000000  0.60000000  0.10000000  1
  Co  Co1  1  0.30000000  0.60000000  0.30000000  1
  Co  Co1  1  0.30000000  0.60000000  0.50000000  1
  Co  Co1  1  0.30000000  0.60000000  0.70000000  1
  Co  Co1  1  0.30000000  0.60000000  0.90000000  1
  Co  Co1  1  0.30000000  0.80000000  0.10000000  1
  Co  Co1  1  0.30000000  0.80000000  0.30000000  1
  Co  Co1  1  0.30000000  0.80000000  0.50000000  1
  Co  Co1  1  0.30000000  0.80000000  0.70000000  1
  Co  Co1  1  0.30000000  0.80000000  0.90000000  1
  Co  Co1  1  0.50000000  0.00000000  0.10000000  1
  Co  Co1  1  0.50000000  0.00000000  0.30000000  1
  Co  Co1  1  0.50000000  0.00000000  0.50000000  1
  Co  Co1  1  0.50000000  0.00000000  0.70000000  1
  Co  Co1  1  0.50000000  0.00000000  0.90000000  1
  Co  Co1  1  0.50000000  0.20000000  0.10000000  1
  Co  Co1  1  0.50000000  0.20000000  0.30000000  1
  Co  Co1  1  0.50000000  0.20000000  0.50000000  1
  Co  Co1  1  0.50000000  0.20000000  0.70000000  1
  Co  Co1  1  0.50000000  0.20000000  0.90000000  1
  Co  Co1  1  0.50000000  0.40000000  0.10000000  1
  Co  Co1  1  0.50000000  0.40000000  0.30000000  1
  Co  Co1  1  0.50000000  0.40000000  0.50000000  1
  Co  Co1  1  0.50000000  0.40000000  0.70000000  1
  Co  Co1  1  0.50000000  0.40000000  0.90000000  1
  Co  Co1  1  0.50000000  0.60000000  0.10000000  1
  Co  Co1  1  0.50000000  0.60000000  0.30000000  1
  Co  Co1  1  0.50000000  0.60000000  0.50000000  1
  Co  Co1  1  0.50000000  0.60000000  0.70000000  1
  Co  Co1  1  0.50000000  0.60000000  0.90000000  1
  Co  Co1  1  0.50000000  0.80000000  0.10000000  1
  Co  Co1  1  0.50000000  0.80000000  0.30000000  1
  Co  Co1  1  0.50000000  0.80000000  0.50000000  1
  Co  Co1  1  0.50000000  0.80000000  0.70000000  1
  Co  Co1  1  0.50000000  0.80000000  0.90000000  1
  Co  Co1  1  0.70000000  0.00000000  0.10000000  1
  Co  Co1  1  0.70000000  0.00000000  0.30000000  1
  Co  Co1  1  0.70000000  0.00000000  0.50000000  1
  Co  Co1  1  0.70000000  0.00000000  0.70000000  1
  Co  Co1  1  0.70000000  0.00000000  0.90000000  1
  Co  Co1  1  0.70000000  0.20000000  0.10000000  1
  Co  Co1  1  0.70000000  0.20000000  0.30000000  1
  Co  Co1  1  0.70000000  0.20000000  0.50000000  1
  Co  Co1  1  0.70000000  0.20000000  0.70000000  1
  Co  Co1  1  0.70000000  0.20000000  0.90000000  1
  Co  Co1  1  0.70000000  0.40000000  0.10000000  1
  Co  Co1  1  0.70000000  0.40000000  0.30000000  1
  Co  Co1  1  0.70000000  0.40000000  0.50000000  1
  Co  Co1  1  0.70000000  0.40000000  0.70000000  1
  Co  Co1  1  0.70000000  0.40000000  0.90000000  1
  Co  Co1  1  0.70000000  0.60000000  0.10000000  1
  Co  Co1  1  0.70000000  0.60000000  0.30000000  1
  Co  Co1  1  0.70000000  0.60000000  0.50000000  1
  Co  Co1  1  0.70000000  0.60000000  0.70000000  1
  Co  Co1  1  0.70000000  0.60000000  0.90000000  1
  Co  Co1  1  0.70000000  0.80000000  0.10000000  1
  Co  Co1  1  0.70000000  0.80000000  0.30000000  1
  Co  Co1  1  0.70000000  0.80000000  0.50000000  1
  Co  Co1  1  0.70000000  0.80000000  0.70000000  1
  Co  Co1  1  0.70000000  0.80000000  0.90000000  1
  Co  Co1  1  0.90000000  0.00000000  0.10000000  1
  Co  Co1  1  0.90000000  0.00000000  0.30000000  1
  Co  Co1  1  0.90000000  0.00000000  0.50000000  1
  Co  Co1  1  0.90000000  0.00000000  0.70000000  1
  Co  Co1  1  0.90000000  0.00000000  0.90000000  1
  Co  Co1  1  0.90000000  0.20000000  0.10000000  1
  Co  Co1  1  0.90000000  0.20000000  0.30000000  1
  Co  Co1  1  0.90000000  0.20000000  0.50000000  1
  Co  Co1  1  0.90000000  0.20000000  0.70000000  1
  Co  Co1  1  0.90000000  0.20000000  0.90000000  1
  Co  Co1  1  0.90000000  0.40000000  0.10000000  1
  Co  Co1  1  0.90000000  0.40000000  0.30000000  1
  Co  Co1  1  0.90000000  0.40000000  0.50000000  1
  Co  Co1  1  0.90000000  0.40000000  0.70000000  1
  Co  Co1  1  0.90000000  0.40000000  0.90000000  1
  Co  Co1  1  0.90000000  0.60000000  0.10000000  1
  Co  Co1  1  0.90000000  0.60000000  0.30000000  1
  Co  Co1  1  0.90000000  0.60000000  0.50000000  1
  Co  Co1  1  0.90000000  0.60000000  0.70000000  1
  Co  Co1  1  0.90000000  0.60000000  0.90000000  1
  Co  Co1  1  0.90000000  0.80000000  0.10000000  1
  Co  Co1  1  0.90000000  0.80000000  0.30000000  1
  Co  Co1  1  0.90000000  0.80000000  0.50000000  1
  Co  Co1  1  0.90000000  0.80000000  0.70000000  1
  Co  Co1  1  0.90000000  0.80000000  0.90000000  1
  Co  Co1  1  0.10000000  0.10000000  0.00000000  1
  Co  Co1  1  0.10000000  0.10000000  0.20000000  1
  Co  Co1  1  0.10000000  0.10000000  0.40000000  1
  Co  Co1  1  0.10000000  0.10000000  0.60000000  1
  Co  Co1  1  0.10000000  0.10000000  0.80000000  1
  Co  Co1  1  0.10000000  0.30000000  0.00000000  1
  Co  Co1  1  0.10000000  0.30000000  0.20000000  1
  Co  Co1  1  0.10000000  0.30000000  0.40000000  1
  Co  Co1  1  0.10000000  0.30000000  0.60000000  1
  Co  Co1  1  0.10000000  0.30000000  0.80000000  1
  Co  Co1  1  0.10000000  0.50000000  0.00000000  1
  Co  Co1  1  0.10000000  0.50000000  0.20000000  1
  Co  Co1  1  0.10000000  0.50000000  0.40000000  1
  Co  Co1  1  0.10000000  0.50000000  0.60000000  1
  Co  Co1  1  0.10000000  0.50000000  0.80000000  1
  Co  Co1  1  0.10000000  0.70000000  0.00000000  1
  Co  Co1  1  0.10000000  0.70000000  0.20000000  1
  Co  Co1  1  0.10000000  0.70000000  0.40000000  1
  Co  Co1  1  0.10000000  0.70000000  0.60000000  1
  Co  Co1  1  0.10000000  0.70000000  0.80000000  1
  Co  Co1  1  0.10000000  0.90000000  0.00000000  1
  Co  Co1  1  0.10000000  0.90000000  0.20000000  1
  Co  Co1  1  0.10000000  0.90000000  0.40000000  1
  Co  Co1  1  0.10000000  0.90000000  0.60000000  1
  Co  Co1  1  0.10000000  0.90000000  0.80000000  1
  Co  Co1  1  0.30000000  0.10000000  0.00000000  1
  Co  Co1  1  0.30000000  0.10000000  0.20000000  1
  Co  Co1  1  0.30000000  0.10000000  0.40000000  1
  Co  Co1  1  0.30000000  0.10000000  0.60000000  1
  Co  Co1  1  0.30000000  0.10000000  0.80000000  1
  Co  Co1  1  0.30000000  0.30000000  0.00000000  1
  Co  Co1  1  0.30000000  0.30000000  0.20000000  1
  Co  Co1  1  0.30000000  0.30000000  0.40000000  1
  Co  Co1  1  0.30000000  0.30000000  0.60000000  1
  Co  Co1  1  0.30000000  0.30000000  0.80000000  1
  Co  Co1  1  0.30000000  0.50000000  0.00000000  1
  Co  Co1  1  0.30000000  0.50000000  0.20000000  1
  Co  Co1  1  0.30000000  0.50000000  0.40000000  1
  Co  Co1  1  0.30000000  0.50000000  0.60000000  1
  Co  Co1  1  0.30000000  0.50000000  0.80000000  1
  Co  Co1  1  0.30000000  0.70000000  0.00000000  1
  Co  Co1  1  0.30000000  0.70000000  0.20000000  1
  Co  Co1  1  0.30000000  0.70000000  0.40000000  1
  Co  Co1  1  0.30000000  0.70000000  0.60000000  1
  Co  Co1  1  0.30000000  0.70000000  0.80000000  1
  Co  Co1  1  0.30000000  0.90000000  0.00000000  1
  Co  Co1  1  0.30000000  0.90000000  0.20000000  1
  Co  Co1  1  0.30000000  0.90000000  0.40000000  1
  Co  Co1  1  0.30000000  0.90000000  0.60000000  1
  Co  Co1  1  0.30000000  0.90000000  0.80000000  1
  Co  Co1  1  0.50000000  0.10000000  0.00000000  1
  Co  Co1  1  0.50000000  0.10000000  0.20000000  1
  Co  Co1  1  0.50000000  0.10000000  0.40000000  1
  Co  Co1  1  0.50000000  0.10000000  0.60000000  1
  Co  Co1  1  0.50000000  0.10000000  0.80000000  1
  Co  Co1  1  0.50000000  0.30000000  0.00000000  1
  Co  Co1  1  0.50000000  0.30000000  0.20000000  1
  Co  Co1  1  0.50000000  0.30000000  0.40000000  1
  Co  Co1  1  0.50000000  0.30000000  0.60000000  1
  Co  Co1  1  0.50000000  0.30000000  0.80000000  1
  Co  Co1  1  0.50000000  0.50000000  0.00000000  1
  Co  Co1  1  0.50000000  0.50000000  0.20000000  1
  Co  Co1  1  0.50000000  0.50000000  0.40000000  1
  Co  Co1  1  0.50000000  0.50000000  0.60000000  1
  Co  Co1  1  0.50000000  0.50000000  0.80000000  1
  Co  Co1  1  0.50000000  0.70000000  0.00000000  1
  Co  Co1  1  0.50000000  0.70000000  0.20000000  1
  Co  Co1  1  0.50000000  0.70000000  0.40000000  1
  Co  Co1  1  0.50000000  0.70000000  0.60000000  1
  Co  Co1  1  0.50000000  0.70000000  0.80000000  1
  Co  Co1  1  0.50000000  0.90000000  0.00000000  1
  Co  Co1  1  0.50000000  0.90000000  0.20000000  1
  Co  Co1  1  0.50000000  0.90000000  0.40000000  1
  Co  Co1  1  0.50000000  0.90000000  0.60000000  1
  Co  Co1  1  0.50000000  0.90000000  0.80000000  1
  Co  Co1  1  0.70000000  0.10000000  0.00000000  1
  Co  Co1  1  0.70000000  0.10000000  0.20000000  1
  Co  Co1  1  0.70000000  0.10000000  0.40000000  1
  Co  Co1  1  0.70000000  0.10000000  0.60000000  1
  Co  Co1  1  0.70000000  0.10000000  0.80000000  1
  Co  Co1  1  0.70000000  0.30000000  0.00000000  1
  Co  Co1  1  0.70000000  0.30000000  0.20000000  1
  Co  Co1  1  0.70000000  0.30000000  0.40000000  1
  Co  Co1  1  0.70000000  0.30000000  0.60000000  1
  Co  Co1  1  0.70000000  0.30000000  0.80000000  1
  Co  Co1  1  0.70000000  0.50000000  0.00000000  1
  Co  Co1  1  0.70000000  0.50000000  0.20000000  1
  Co  Co1  1  0.70000000  0.50000000  0.40000000  1
  Co  Co1  1  0.70000000  0.50000000  0.60000000  1
  Co  Co1  1  0.70000000  0.50000000  0.80000000  1
  Co  Co1  1  0.70000000  0.70000000  0.00000000  1
  Co  Co1  1  0.70000000  0.70000000  0.20000000  1
  Co  Co1  1  0.70000000  0.70000000  0.40000000  1
  Co  Co1  1  0.70000000  0.70000000  0.60000000  1
  Co  Co1  1  0.70000000  0.70000000  0.80000000  1
  Co  Co1  1  0.70000000  0.90000000  0.00000000  1
  Co  Co1  1  0.70000000  0.90000000  0.20000000  1
  Co  Co1  1  0.70000000  0.90000000  0.40000000  1
  Co  Co1  1  0.70000000  0.90000000  0.60000000  1
  Co  Co1  1  0.70000000  0.90000000  0.80000000  1
  Co  Co1  1  0.90000000  0.10000000  0.00000000  1
  Co  Co1  1  0.90000000  0.10000000  0.20000000  1
  Co  Co1  1  0.90000000  0.10000000  0.40000000  1
  Co  Co1  1  0.90000000  0.10000000  0.60000000  1
  Co  Co1  1  0.90000000  0.10000000  0.80000000  1
  Co  Co1  1  0.90000000  0.30000000  0.00000000  1
  Co  Co1  1  0.90000000  0.30000000  0.20000000  1
  Co  Co1  1  0.90000000  0.30000000  0.40000000  1
  Co  Co1  1  0.90000000  0.30000000  0.60000000  1
  Co  Co1  1  0.90000000  0.30000000  0.80000000  1
  Co  Co1  1  0.90000000  0.50000000  0.00000000  1
  Co  Co1  1  0.90000000  0.50000000  0.20000000  1
  Co  Co1  1  0.90000000  0.50000000  0.40000000  1
  Co  Co1  1  0.90000000  0.50000000  0.60000000  1
  Co  Co1  1  0.90000000  0.50000000  0.80000000  1
  Co  Co1  1  0.90000000  0.70000000  0.00000000  1
  Co  Co1  1  0.90000000  0.70000000  0.20000000  1
  Co  Co1  1  0.90000000  0.70000000  0.40000000  1
  Co  Co1  1  0.90000000  0.70000000  0.60000000  1
  Co  Co1  1  0.90000000  0.70000000  0.80000000  1
  Co  Co1  1  0.90000000  0.90000000  0.00000000  1
  Co  Co1  1  0.90000000  0.90000000  0.20000000  1
  Co  Co1  1  0.90000000  0.90000000  0.40000000  1
  Co  Co1  1  0.90000000  0.90000000  0.60000000  1
  Co  Co1  1  0.90000000  0.90000000  0.80000000  1
