# generated using pymatgen
data_TaCo2
_symmetry_space_group_name_H-M   'P 1'
_cell_length_a   14.28000000
_cell_length_b   14.28000000
_cell_length_c   46.50000000
_cell_angle_alpha   90.00000000
_cell_angle_beta   90.00000000
_cell_angle_gamma   90.00000000
_symmetry_Int_Tables_number   1
_chemical_formula_structural   TaCo2
_chemical_formula_sum   'Ta216 Co432'
_cell_volume   9482.20560000
_cell_formula_units_Z   216
loop_
 _symmetry_equiv_pos_site_id
 _symmetry_equiv_pos_as_xyz
  1  'x, y, z'
loop_
 _atom_site_type_symbol
 _atom_site_label
 _atom_site_symmetry_multiplicity
 _atom_site_fract_x
 _atom_site_fract_y
 _atom_site_fract_z
 _atom_site_occupancy
  Ta  Ta1  1  0.00000000  0.00000000  0.03133333  1
  Ta  Ta1  1  0.00000000  0.00000000  0.36466667  1
  Ta  Ta1  1  0.00000000  0.00000000  0.69800000  1
  Ta  Ta1  1  0.00000000  0.33333333  0.03133333  1
  Ta  Ta1  1  0.00000000  0.33333333  0.36466667  1
  Ta  Ta1  1  0.00000000  0.33333333  0.69800000  1
  Ta  Ta1  1  0.00000000  0.66666667  0.03133333  1
  Ta  Ta1  1  0.00000000  0.66666667  0.36466667  1
  Ta  Ta1  1  0.00000000  0.66666667  0.69800000  1
  Ta  Ta1  1  0.33333333  0.00000000  0.03133333  1
  Ta  Ta1  1  0.33333333  0.00000000  0.36466667  1
  Ta  Ta1  1  0.33333333  0.00000000  0.69800000  1
  Ta  Ta1  1  0.33333333  0.33333333  0.03133333  1
  Ta  Ta1  1  0.33333333  0.33333333  0.36466667  1
  Ta  Ta1  1  0.33333333  0.33333333  0.69800000  1
  Ta  Ta1  1  0.33333333  0.66666667  0.03133333  1
  Ta  Ta1  1  0.33333333  0.66666667  0.36466667  1
  Ta  Ta1  1  0.33333333  0.66666667  0.69800000  1
  Ta  Ta1  1  0.66666667  0.00000000  0.03133333  1
  Ta  Ta1  1  0.66666667  0.00000000  0.36466667  1
  Ta  Ta1  1  0.66666667  0.00000000  0.69800000  1
  Ta  Ta1  1  0.66666667  0.33333333  0.03133333  1
  Ta  Ta1  1  0.66666667  0.33333333  0.36466667  1
  Ta  Ta1  1  0.66666667  0.33333333  0.69800000  1
  Ta  Ta1  1  0.66666667  0.66666667  0.03133333  1
  Ta  Ta1  1  0.66666667  0.66666667  0.36466667  1
  Ta  Ta1  1  0.66666667  0.66666667  0.69800000  1
  Ta  Ta1  1  0.00000000  0.00000000  0.19800000  1
  Ta  Ta1  1  0.00000000  0.00000000  0.53133333  1
  Ta  Ta1  1  0.00000000  0.00000000  0.86466667  1
  Ta  Ta1  1  0.00000000  0.33333333  0.19800000  1
  Ta  Ta1  1  0.00000000  0.33333333  0.53133333  1
  Ta  Ta1  1  0.00000000  0.33333333  0.86466667  1
  Ta  Ta1  1  0.00000000  0.66666667  0.19800000  1
  Ta  Ta1  1  0.00000000  0.66666667  0.53133333  1
  Ta  Ta1  1  0.00000000  0.66666667  0.86466667  1
  Ta  Ta1  1  0.33333333  0.00000000  0.19800000  1
  Ta  Ta1  1  0.33333333  0.00000000  0.53133333  1
  Ta  Ta1  1  0.33333333  0.00000000  0.86466667  1
  Ta  Ta1  1  0.33333333  0.33333333  0.19800000  1
  Ta  Ta1  1  0.33333333  0.33333333  0.53133333  1
  Ta  Ta1  1  0.33333333  0.33333333  0.86466667  1
  Ta  Ta1  1  0.33333333  0.66666667  0.19800000  1
  Ta  Ta1  1  0.33333333  0.66666667  0.53133333  1
  Ta  Ta1  1  0.33333333  0.66666667  0.86466667  1
  Ta  Ta1  1  0.66666667  0.00000000  0.19800000  1
  Ta  Ta1  1  0.66666667  0.00000000  0.53133333  1
  Ta  Ta1  1  0.66666667  0.00000000  0.86466667  1
  Ta  Ta1  1  0.66666667  0.33333333  0.19800000  1
  Ta  Ta1  1  0.66666667  0.33333333  0.53133333  1
  Ta  Ta1  1  0.66666667  0.33333333  0.86466667  1
  Ta  Ta1  1  0.66666667  0.66666667  0.19800000  1
  Ta  Ta1  1  0.66666667  0.66666667  0.53133333  1
  Ta  Ta1  1  0.66666667  0.66666667  0.86466667  1
  Ta  Ta1  1  0.00000000  0.00000000  0.13533333  1
  Ta  Ta1  1  0.00000000  0.00000000  0.46866667  1
  Ta  Ta1  1  0.00000000  0.00000000  0.80200000  1
  Ta  Ta1  1  0.00000000  0.33333333  0.13533333  1
  Ta  Ta1  1  0.00000000  0.33333333  0.46866667  1
  Ta  Ta1  1  0.00000000  0.33333333  0.80200000  1
  Ta  Ta1  1  0.00000000  0.66666667  0.13533333  1
  Ta  Ta1  1  0.00000000  0.66666667  0.46866667  1
  Ta  Ta1  1  0.00000000  0.66666667  0.80200000  1
  Ta  Ta1  1  0.33333333  0.00000000  0.13533333  1
  Ta  Ta1  1  0.33333333  0.00000000  0.46866667  1
  Ta  Ta1  1  0.33333333  0.00000000  0.80200000  1
  Ta  Ta1  1  0.33333333  0.33333333  0.13533333  1
  Ta  Ta1  1  0.33333333  0.33333333  0.46866667  1
  Ta  Ta1  1  0.33333333  0.33333333  0.80200000  1
  Ta  Ta1  1  0.33333333  0.66666667  0.13533333  1
  Ta  Ta1  1  0.33333333  0.66666667  0.46866667  1
  Ta  Ta1  1  0.33333333  0.66666667  0.80200000  1
  Ta  Ta1  1  0.66666667  0.00000000  0.13533333  1
  Ta  Ta1  1  0.66666667  0.00000000  0.46866667  1
  Ta  Ta1  1  0.66666667  0.00000000  0.80200000  1
  Ta  Ta1  1  0.66666667  0.33333333  0.13533333  1
  Ta  Ta1  1  0.66666667  0.33333333  0.46866667  1
  Ta  Ta1  1  0.66666667  0.33333333  0.80200000  1
  Ta  Ta1  1  0.66666667  0.66666667  0.13533333  1
  Ta  Ta1  1  0.66666667  0.66666667  0.46866667  1
  Ta  Ta1  1  0.66666667  0.66666667  0.80200000  1
  Ta  Ta1  1  0.00000000  0.00000000  0.30200000  1
  Ta  Ta1  1  0.00000000  0.00000000  0.63533333  1
  Ta  Ta1  1  0.00000000  0.00000000  0.96866667  1
  Ta  Ta1  1  0.00000000  0.33333333  0.30200000  1
  Ta  Ta1  1  0.00000000  0.33333333  0.63533333  1
  Ta  Ta1  1  0.00000000  0.33333333  0.96866667  1
  Ta  Ta1  1  0.00000000  0.66666667  0.30200000  1
  Ta  Ta1  1  0.00000000  0.66666667  0.63533333  1
  Ta  Ta1  1  0.00000000  0.66666667  0.96866667  1
  Ta  Ta1  1  0.33333333  0.00000000  0.30200000  1
  Ta  Ta1  1  0.33333333  0.00000000  0.63533333  1
  Ta  Ta1  1  0.33333333  0.00000000  0.96866667  1
  Ta  Ta1  1  0.33333333  0.33333333  0.30200000  1
  Ta  Ta1  1  0.33333333  0.33333333  0.63533333  1
  Ta  Ta1  1  0.33333333  0.33333333  0.96866667  1
  Ta  Ta1  1  0.33333333  0.66666667  0.30200000  1
  Ta  Ta1  1  0.33333333  0.66666667  0.63533333  1
  Ta  Ta1  1  0.33333333  0.66666667  0.96866667  1
  Ta  Ta1  1  0.66666667  0.00000000  0.30200000  1
  Ta  Ta1  1  0.66666667  0.00000000  0.63533333  1
  Ta  Ta1  1  0.66666667  0.00000000  0.96866667  1
  Ta  Ta1  1  0.66666667  0.33333333  0.30200000  1
  Ta  Ta1  1  0.66666667  0.33333333  0.63533333  1
  Ta  Ta1  1  0.66666667  0.33333333  0.96866667  1
  Ta  Ta1  1  0.66666667  0.66666667  0.30200000  1
  Ta  Ta1  1  0.66666667  0.66666667  0.63533333  1
  Ta  Ta1  1  0.66666667  0.66666667  0.96866667  1
  Ta  Ta2  1  0.11111111  0.22222222  0.28140000  1
  Ta  Ta2  1  0.11111111  0.22222222  0.61473333  1
  Ta  Ta2  1  0.11111111  0.22222222  0.94806667  1
  Ta  Ta2  1  0.11111111  0.55555556  0.28140000  1
  Ta  Ta2  1  0.11111111  0.55555556  0.61473333  1
  Ta  Ta2  1  0.11111111  0.55555556  0.94806667  1
  Ta  Ta2  1  0.11111111  0.88888889  0.28140000  1
  Ta  Ta2  1  0.11111111  0.88888889  0.61473333  1
  Ta  Ta2  1  0.11111111  0.88888889  0.94806667  1
  Ta  Ta2  1  0.44444444  0.22222222  0.28140000  1
  Ta  Ta2  1  0.44444444  0.22222222  0.61473333  1
  Ta  Ta2  1  0.44444444  0.22222222  0.94806667  1
  Ta  Ta2  1  0.44444444  0.55555556  0.28140000  1
  Ta  Ta2  1  0.44444444  0.55555556  0.61473333  1
  Ta  Ta2  1  0.44444444  0.55555556  0.94806667  1
  Ta  Ta2  1  0.44444444  0.88888889  0.28140000  1
  Ta  Ta2  1  0.44444444  0.88888889  0.61473333  1
  Ta  Ta2  1  0.44444444  0.88888889  0.94806667  1
  Ta  Ta2  1  0.77777778  0.22222222  0.28140000  1
  Ta  Ta2  1  0.77777778  0.22222222  0.61473333  1
  Ta  Ta2  1  0.77777778  0.22222222  0.94806667  1
  Ta  Ta2  1  0.77777778  0.55555556  0.28140000  1
  Ta  Ta2  1  0.77777778  0.55555556  0.61473333  1
  Ta  Ta2  1  0.77777778  0.55555556  0.94806667  1
  Ta  Ta2  1  0.77777778  0.88888889  0.28140000  1
  Ta  Ta2  1  0.77777778  0.88888889  0.61473333  1
  Ta  Ta2  1  0.77777778  0.88888889  0.94806667  1
  Ta  Ta2  1  0.22222222  0.11111111  0.11473333  1
  Ta  Ta2  1  0.22222222  0.11111111  0.44806667  1
  Ta  Ta2  1  0.22222222  0.11111111  0.78140000  1
  Ta  Ta2  1  0.22222222  0.44444444  0.11473333  1
  Ta  Ta2  1  0.22222222  0.44444444  0.44806667  1
  Ta  Ta2  1  0.22222222  0.44444444  0.78140000  1
  Ta  Ta2  1  0.22222222  0.77777778  0.11473333  1
  Ta  Ta2  1  0.22222222  0.77777778  0.44806667  1
  Ta  Ta2  1  0.22222222  0.77777778  0.78140000  1
  Ta  Ta2  1  0.55555556  0.11111111  0.11473333  1
  Ta  Ta2  1  0.55555556  0.11111111  0.44806667  1
  Ta  Ta2  1  0.55555556  0.11111111  0.78140000  1
  Ta  Ta2  1  0.55555556  0.44444444  0.11473333  1
  Ta  Ta2  1  0.55555556  0.44444444  0.44806667  1
  Ta  Ta2  1  0.55555556  0.44444444  0.78140000  1
  Ta  Ta2  1  0.55555556  0.77777778  0.11473333  1
  Ta  Ta2  1  0.55555556  0.77777778  0.44806667  1
  Ta  Ta2  1  0.55555556  0.77777778  0.78140000  1
  Ta  Ta2  1  0.88888889  0.11111111  0.11473333  1
  Ta  Ta2  1  0.88888889  0.11111111  0.44806667  1
  Ta  Ta2  1  0.88888889  0.11111111  0.78140000  1
  Ta  Ta2  1  0.88888889  0.44444444  0.11473333  1
  Ta  Ta2  1  0.88888889  0.44444444  0.44806667  1
  Ta  Ta2  1  0.88888889  0.44444444  0.78140000  1
  Ta  Ta2  1  0.88888889  0.77777778  0.11473333  1
  Ta  Ta2  1  0.88888889  0.77777778  0.44806667  1
  Ta  Ta2  1  0.88888889  0.77777778  0.78140000  1
  Ta  Ta2  1  0.11111111  0.22222222  0.21860000  1
  Ta  Ta2  1  0.11111111  0.22222222  0.55193333  1
  Ta  Ta2  1  0.11111111  0.22222222  0.88526667  1
  Ta  Ta2  1  0.11111111  0.55555556  0.21860000  1
  Ta  Ta2  1  0.11111111  0.55555556  0.55193333  1
  Ta  Ta2  1  0.11111111  0.55555556  0.88526667  1
  Ta  Ta2  1  0.11111111  0.88888889  0.21860000  1
  Ta  Ta2  1  0.11111111  0.88888889  0.55193333  1
  Ta  Ta2  1  0.11111111  0.88888889  0.88526667  1
  Ta  Ta2  1  0.44444444  0.22222222  0.21860000  1
  Ta  Ta2  1  0.44444444  0.22222222  0.55193333  1
  Ta  Ta2  1  0.44444444  0.22222222  0.88526667  1
  Ta  Ta2  1  0.44444444  0.55555556  0.21860000  1
  Ta  Ta2  1  0.44444444  0.55555556  0.55193333  1
  Ta  Ta2  1  0.44444444  0.55555556  0.88526667  1
  Ta  Ta2  1  0.44444444  0.88888889  0.21860000  1
  Ta  Ta2  1  0.44444444  0.88888889  0.55193333  1
  Ta  Ta2  1  0.44444444  0.88888889  0.88526667  1
  Ta  Ta2  1  0.77777778  0.22222222  0.21860000  1
  Ta  Ta2  1  0.77777778  0.22222222  0.55193333  1
  Ta  Ta2  1  0.77777778  0.22222222  0.88526667  1
  Ta  Ta2  1  0.77777778  0.55555556  0.21860000  1
  Ta  Ta2  1  0.77777778  0.55555556  0.55193333  1
  Ta  Ta2  1  0.77777778  0.55555556  0.88526667  1
  Ta  Ta2  1  0.77777778  0.88888889  0.21860000  1
  Ta  Ta2  1  0.77777778  0.88888889  0.55193333  1
  Ta  Ta2  1  0.77777778  0.88888889  0.88526667  1
  Ta  Ta2  1  0.22222222  0.11111111  0.05193333  1
  Ta  Ta2  1  0.22222222  0.11111111  0.38526667  1
  Ta  Ta2  1  0.22222222  0.11111111  0.71860000  1
  Ta  Ta2  1  0.22222222  0.44444444  0.05193333  1
  Ta  Ta2  1  0.22222222  0.44444444  0.38526667  1
  Ta  Ta2  1  0.22222222  0.44444444  0.71860000  1
  Ta  Ta2  1  0.22222222  0.77777778  0.05193333  1
  Ta  Ta2  1  0.22222222  0.77777778  0.38526667  1
  Ta  Ta2  1  0.22222222  0.77777778  0.71860000  1
  Ta  Ta2  1  0.55555556  0.11111111  0.05193333  1
  Ta  Ta2  1  0.55555556  0.11111111  0.38526667  1
  Ta  Ta2  1  0.55555556  0.11111111  0.71860000  1
  Ta  Ta2  1  0.55555556  0.44444444  0.05193333  1
  Ta  Ta2  1  0.55555556  0.44444444  0.38526667  1
  Ta  Ta2  1  0.55555556  0.44444444  0.71860000  1
  Ta  Ta2  1  0.55555556  0.77777778  0.05193333  1
  Ta  Ta2  1  0.55555556  0.77777778  0.38526667  1
  Ta  Ta2  1  0.55555556  0.77777778  0.71860000  1
  Ta  Ta2  1  0.88888889  0.11111111  0.05193333  1
  Ta  Ta2  1  0.88888889  0.11111111  0.38526667  1
  Ta  Ta2  1  0.88888889  0.11111111  0.71860000  1
  Ta  Ta2  1  0.88888889  0.44444444  0.05193333  1
  Ta  Ta2  1  0.88888889  0.44444444  0.38526667  1
  Ta  Ta2  1  0.88888889  0.44444444  0.71860000  1
  Ta  Ta2  1  0.88888889  0.77777778  0.05193333  1
  Ta  Ta2  1  0.88888889  0.77777778  0.38526667  1
  Ta  Ta2  1  0.88888889  0.77777778  0.71860000  1
  Co  Co1  1  0.11111111  0.22222222  0.04171333  1
  Co  Co1  1  0.11111111  0.22222222  0.37504667  1
  Co  Co1  1  0.11111111  0.22222222  0.70838000  1
  Co  Co1  1  0.11111111  0.55555556  0.04171333  1
  Co  Co1  1  0.11111111  0.55555556  0.37504667  1
  Co  Co1  1  0.11111111  0.55555556  0.70838000  1
  Co  Co1  1  0.11111111  0.88888889  0.04171333  1
  Co  Co1  1  0.11111111  0.88888889  0.37504667  1
  Co  Co1  1  0.11111111  0.88888889  0.70838000  1
  Co  Co1  1  0.44444444  0.22222222  0.04171333  1
  Co  Co1  1  0.44444444  0.22222222  0.37504667  1
  Co  Co1  1  0.44444444  0.22222222  0.70838000  1
  Co  Co1  1  0.44444444  0.55555556  0.04171333  1
  Co  Co1  1  0.44444444  0.55555556  0.37504667  1
  Co  Co1  1  0.44444444  0.55555556  0.70838000  1
  Co  Co1  1  0.44444444  0.88888889  0.04171333  1
  Co  Co1  1  0.44444444  0.88888889  0.37504667  1
  Co  Co1  1  0.44444444  0.88888889  0.70838000  1
  Co  Co1  1  0.77777778  0.22222222  0.04171333  1
  Co  Co1  1  0.77777778  0.22222222  0.37504667  1
  Co  Co1  1  0.77777778  0.22222222  0.70838000  1
  Co  Co1  1  0.77777778  0.55555556  0.04171333  1
  Co  Co1  1  0.77777778  0.55555556  0.37504667  1
  Co  Co1  1  0.77777778  0.55555556  0.70838000  1
  Co  Co1  1  0.77777778  0.88888889  0.04171333  1
  Co  Co1  1  0.77777778  0.88888889  0.37504667  1
  Co  Co1  1  0.77777778  0.88888889  0.70838000  1
  Co  Co1  1  0.22222222  0.11111111  0.20838000  1
  Co  Co1  1  0.22222222  0.11111111  0.54171333  1
  Co  Co1  1  0.22222222  0.11111111  0.87504667  1
  Co  Co1  1  0.22222222  0.44444444  0.20838000  1
  Co  Co1  1  0.22222222  0.44444444  0.54171333  1
  Co  Co1  1  0.22222222  0.44444444  0.87504667  1
  Co  Co1  1  0.22222222  0.77777778  0.20838000  1
  Co  Co1  1  0.22222222  0.77777778  0.54171333  1
  Co  Co1  1  0.22222222  0.77777778  0.87504667  1
  Co  Co1  1  0.55555556  0.11111111  0.20838000  1
  Co  Co1  1  0.55555556  0.11111111  0.54171333  1
  Co  Co1  1  0.55555556  0.11111111  0.87504667  1
  Co  Co1  1  0.55555556  0.44444444  0.20838000  1
  Co  Co1  1  0.55555556  0.44444444  0.54171333  1
  Co  Co1  1  0.55555556  0.44444444  0.87504667  1
  Co  Co1  1  0.55555556  0.77777778  0.20838000  1
  Co  Co1  1  0.55555556  0.77777778  0.54171333  1
  Co  Co1  1  0.55555556  0.77777778  0.87504667  1
  Co  Co1  1  0.88888889  0.11111111  0.20838000  1
  Co  Co1  1  0.88888889  0.11111111  0.54171333  1
  Co  Co1  1  0.88888889  0.11111111  0.87504667  1
  Co  Co1  1  0.88888889  0.44444444  0.20838000  1
  Co  Co1  1  0.88888889  0.44444444  0.54171333  1
  Co  Co1  1  0.88888889  0.44444444  0.87504667  1
  Co  Co1  1  0.88888889  0.77777778  0.20838000  1
  Co  Co1  1  0.88888889  0.77777778  0.54171333  1
  Co  Co1  1  0.88888889  0.77777778  0.87504667  1
  Co  Co1  1  0.11111111  0.22222222  0.12495333  1
  Co  Co1  1  0.11111111  0.22222222  0.45828667  1
  Co  Co1  1  0.11111111  0.22222222  0.79162000  1
  Co  Co1  1  0.11111111  0.55555556  0.12495333  1
  Co  Co1  1  0.11111111  0.55555556  0.45828667  1
  Co  Co1  1  0.11111111  0.55555556  0.79162000  1
  Co  Co1  1  0.11111111  0.88888889  0.12495333  1
  Co  Co1  1  0.11111111  0.88888889  0.45828667  1
  Co  Co1  1  0.11111111  0.88888889  0.79162000  1
  Co  Co1  1  0.44444444  0.22222222  0.12495333  1
  Co  Co1  1  0.44444444  0.22222222  0.45828667  1
  Co  Co1  1  0.44444444  0.22222222  0.79162000  1
  Co  Co1  1  0.44444444  0.55555556  0.12495333  1
  Co  Co1  1  0.44444444  0.55555556  0.45828667  1
  Co  Co1  1  0.44444444  0.55555556  0.79162000  1
  Co  Co1  1  0.44444444  0.88888889  0.12495333  1
  Co  Co1  1  0.44444444  0.88888889  0.45828667  1
  Co  Co1  1  0.44444444  0.88888889  0.79162000  1
  Co  Co1  1  0.77777778  0.22222222  0.12495333  1
  Co  Co1  1  0.77777778  0.22222222  0.45828667  1
  Co  Co1  1  0.77777778  0.22222222  0.79162000  1
  Co  Co1  1  0.77777778  0.55555556  0.12495333  1
  Co  Co1  1  0.77777778  0.55555556  0.45828667  1
  Co  Co1  1  0.77777778  0.55555556  0.79162000  1
  Co  Co1  1  0.77777778  0.88888889  0.12495333  1
  Co  Co1  1  0.77777778  0.88888889  0.45828667  1
  Co  Co1  1  0.77777778  0.88888889  0.79162000  1
  Co  Co1  1  0.22222222  0.11111111  0.29162000  1
  Co  Co1  1  0.22222222  0.11111111  0.62495333  1
  Co  Co1  1  0.22222222  0.11111111  0.95828667  1
  Co  Co1  1  0.22222222  0.44444444  0.29162000  1
  Co  Co1  1  0.22222222  0.44444444  0.62495333  1
  Co  Co1  1  0.22222222  0.44444444  0.95828667  1
  Co  Co1  1  0.22222222  0.77777778  0.29162000  1
  Co  Co1  1  0.22222222  0.77777778  0.62495333  1
  Co  Co1  1  0.22222222  0.77777778  0.95828667  1
  Co  Co1  1  0.55555556  0.11111111  0.29162000  1
  Co  Co1  1  0.55555556  0.11111111  0.62495333  1
  Co  Co1  1  0.55555556  0.11111111  0.95828667  1
  Co  Co1  1  0.55555556  0.44444444  0.29162000  1
  Co  Co1  1  0.55555556  0.44444444  0.62495333  1
  Co  Co1  1  0.55555556  0.44444444  0.95828667  1
  Co  Co1  1  0.55555556  0.77777778  0.29162000  1
  Co  Co1  1  0.55555556  0.77777778  0.62495333  1
  Co  Co1  1  0.55555556  0.77777778  0.95828667  1
  Co  Co1  1  0.88888889  0.11111111  0.29162000  1
  Co  Co1  1  0.88888889  0.11111111  0.62495333  1
  Co  Co1  1  0.88888889  0.11111111  0.95828667  1
  Co  Co1  1  0.88888889  0.44444444  0.29162000  1
  Co  Co1  1  0.88888889  0.44444444  0.62495333  1
  Co  Co1  1  0.88888889  0.44444444  0.95828667  1
  Co  Co1  1  0.88888889  0.77777778  0.29162000  1
  Co  Co1  1  0.88888889  0.77777778  0.62495333  1
  Co  Co1  1  0.88888889  0.77777778  0.95828667  1
  Co  Co3  1  0.05476333  0.10952667  0.08333333  1
  Co  Co3  1  0.05476333  0.10952667  0.41666667  1
  Co  Co3  1  0.05476333  0.10952667  0.75000000  1
  Co  Co3  1  0.05476333  0.44286000  0.08333333  1
  Co  Co3  1  0.05476333  0.44286000  0.41666667  1
  Co  Co3  1  0.05476333  0.44286000  0.75000000  1
  Co  Co3  1  0.05476333  0.77619333  0.08333333  1
  Co  Co3  1  0.05476333  0.77619333  0.41666667  1
  Co  Co3  1  0.05476333  0.77619333  0.75000000  1
  Co  Co3  1  0.38809667  0.10952667  0.08333333  1
  Co  Co3  1  0.38809667  0.10952667  0.41666667  1
  Co  Co3  1  0.38809667  0.10952667  0.75000000  1
  Co  Co3  1  0.38809667  0.44286000  0.08333333  1
  Co  Co3  1  0.38809667  0.44286000  0.41666667  1
  Co  Co3  1  0.38809667  0.44286000  0.75000000  1
  Co  Co3  1  0.38809667  0.77619333  0.08333333  1
  Co  Co3  1  0.38809667  0.77619333  0.41666667  1
  Co  Co3  1  0.38809667  0.77619333  0.75000000  1
  Co  Co3  1  0.72143000  0.10952667  0.08333333  1
  Co  Co3  1  0.72143000  0.10952667  0.41666667  1
  Co  Co3  1  0.72143000  0.10952667  0.75000000  1
  Co  Co3  1  0.72143000  0.44286000  0.08333333  1
  Co  Co3  1  0.72143000  0.44286000  0.41666667  1
  Co  Co3  1  0.72143000  0.44286000  0.75000000  1
  Co  Co3  1  0.72143000  0.77619333  0.08333333  1
  Co  Co3  1  0.72143000  0.77619333  0.41666667  1
  Co  Co3  1  0.72143000  0.77619333  0.75000000  1
  Co  Co3  1  0.27857000  0.05476333  0.25000000  1
  Co  Co3  1  0.27857000  0.05476333  0.58333333  1
  Co  Co3  1  0.27857000  0.05476333  0.91666667  1
  Co  Co3  1  0.27857000  0.38809667  0.25000000  1
  Co  Co3  1  0.27857000  0.38809667  0.58333333  1
  Co  Co3  1  0.27857000  0.38809667  0.91666667  1
  Co  Co3  1  0.27857000  0.72143000  0.25000000  1
  Co  Co3  1  0.27857000  0.72143000  0.58333333  1
  Co  Co3  1  0.27857000  0.72143000  0.91666667  1
  Co  Co3  1  0.61190333  0.05476333  0.25000000  1
  Co  Co3  1  0.61190333  0.05476333  0.58333333  1
  Co  Co3  1  0.61190333  0.05476333  0.91666667  1
  Co  Co3  1  0.61190333  0.38809667  0.25000000  1
  Co  Co3  1  0.61190333  0.38809667  0.58333333  1
  Co  Co3  1  0.61190333  0.38809667  0.91666667  1
  Co  Co3  1  0.61190333  0.72143000  0.25000000  1
  Co  Co3  1  0.61190333  0.72143000  0.58333333  1
  Co  Co3  1  0.61190333  0.72143000  0.91666667  1
  Co  Co3  1  0.94523667  0.05476333  0.25000000  1
  Co  Co3  1  0.94523667  0.05476333  0.58333333  1
  Co  Co3  1  0.94523667  0.05476333  0.91666667  1
  Co  Co3  1  0.94523667  0.38809667  0.25000000  1
  Co  Co3  1  0.94523667  0.38809667  0.58333333  1
  Co  Co3  1  0.94523667  0.38809667  0.91666667  1
  Co  Co3  1  0.94523667  0.72143000  0.25000000  1
  Co  Co3  1  0.94523667  0.72143000  0.58333333  1
  Co  Co3  1  0.94523667  0.72143000  0.91666667  1
  Co  Co3  1  0.22380667  0.27857000  0.08333333  1
  Co  Co3  1  0.22380667  0.27857000  0.41666667  1
  Co  Co3  1  0.22380667  0.27857000  0.75000000  1
  Co  Co3  1  0.22380667  0.61190333  0.08333333  1
  Co  Co3  1  0.22380667  0.61190333  0.41666667  1
  Co  Co3  1  0.22380667  0.61190333  0.75000000  1
  Co  Co3  1  0.22380667  0.94523667  0.08333333  1
  Co  Co3  1  0.22380667  0.94523667  0.41666667  1
  Co  Co3  1  0.22380667  0.94523667  0.75000000  1
  Co  Co3  1  0.55714000  0.27857000  0.08333333  1
  Co  Co3  1  0.55714000  0.27857000  0.41666667  1
  Co  Co3  1  0.55714000  0.27857000  0.75000000  1
  Co  Co3  1  0.55714000  0.61190333  0.08333333  1
  Co  Co3  1  0.55714000  0.61190333  0.41666667  1
  Co  Co3  1  0.55714000  0.61190333  0.75000000  1
  Co  Co3  1  0.55714000  0.94523667  0.08333333  1
  Co  Co3  1  0.55714000  0.94523667  0.41666667  1
  Co  Co3  1  0.55714000  0.94523667  0.75000000  1
  Co  Co3  1  0.89047333  0.27857000  0.08333333  1
  Co  Co3  1  0.89047333  0.27857000  0.41666667  1
  Co  Co3  1  0.89047333  0.27857000  0.75000000  1
  Co  Co3  1  0.89047333  0.61190333  0.08333333  1
  Co  Co3  1  0.89047333  0.61190333  0.41666667  1
  Co  Co3  1  0.89047333  0.61190333  0.75000000  1
  Co  Co3  1  0.89047333  0.94523667  0.08333333  1
  Co  Co3  1  0.89047333  0.94523667  0.41666667  1
  Co  Co3  1  0.89047333  0.94523667  0.75000000  1
  Co  Co3  1  0.27857000  0.22380667  0.25000000  1
  Co  Co3  1  0.27857000  0.22380667  0.58333333  1
  Co  Co3  1  0.27857000  0.22380667  0.91666667  1
  Co  Co3  1  0.27857000  0.55714000  0.25000000  1
  Co  Co3  1  0.27857000  0.55714000  0.58333333  1
  Co  Co3  1  0.27857000  0.55714000  0.91666667  1
  Co  Co3  1  0.27857000  0.89047333  0.25000000  1
  Co  Co3  1  0.27857000  0.89047333  0.58333333  1
  Co  Co3  1  0.27857000  0.89047333  0.91666667  1
  Co  Co3  1  0.61190333  0.22380667  0.25000000  1
  Co  Co3  1  0.61190333  0.22380667  0.58333333  1
  Co  Co3  1  0.61190333  0.22380667  0.91666667  1
  Co  Co3  1  0.61190333  0.55714000  0.25000000  1
  Co  Co3  1  0.61190333  0.55714000  0.58333333  1
  Co  Co3  1  0.61190333  0.55714000  0.91666667  1
  Co  Co3  1  0.61190333  0.89047333  0.25000000  1
  Co  Co3  1  0.61190333  0.89047333  0.58333333  1
  Co  Co3  1  0.61190333  0.89047333  0.91666667  1
  Co  Co3  1  0.94523667  0.22380667  0.25000000  1
  Co  Co3  1  0.94523667  0.22380667  0.58333333  1
  Co  Co3  1  0.94523667  0.22380667  0.91666667  1
  Co  Co3  1  0.94523667  0.55714000  0.25000000  1
  Co  Co3  1  0.94523667  0.55714000  0.58333333  1
  Co  Co3  1  0.94523667  0.55714000  0.91666667  1
  Co  Co3  1  0.94523667  0.89047333  0.25000000  1
  Co  Co3  1  0.94523667  0.89047333  0.58333333  1
  Co  Co3  1  0.94523667  0.89047333  0.91666667  1
  Co  Co3  1  0.05476333  0.27857000  0.08333333  1
  Co  Co3  1  0.05476333  0.27857000  0.41666667  1
  Co  Co3  1  0.05476333  0.27857000  0.75000000  1
  Co  Co3  1  0.05476333  0.61190333  0.08333333  1
  Co  Co3  1  0.05476333  0.61190333  0.41666667  1
  Co  Co3  1  0.05476333  0.61190333  0.75000000  1
  Co  Co3  1  0.05476333  0.94523667  0.08333333  1
  Co  Co3  1  0.05476333  0.94523667  0.41666667  1
  Co  Co3  1  0.05476333  0.94523667  0.75000000  1
  Co  Co3  1  0.38809667  0.27857000  0.08333333  1
  Co  Co3  1  0.38809667  0.27857000  0.41666667  1
  Co  Co3  1  0.38809667  0.27857000  0.75000000  1
  Co  Co3  1  0.38809667  0.61190333  0.08333333  1
  Co  Co3  1  0.38809667  0.61190333  0.41666667  1
  Co  Co3  1  0.38809667  0.61190333  0.75000000  1
  Co  Co3  1  0.38809667  0.94523667  0.08333333  1
  Co  Co3  1  0.38809667  0.94523667  0.41666667  1
  Co  Co3  1  0.38809667  0.94523667  0.75000000  1
  Co  Co3  1  0.72143000  0.27857000  0.08333333  1
  Co  Co3  1  0.72143000  0.27857000  0.41666667  1
  Co  Co3  1  0.72143000  0.27857000  0.75000000  1
  Co  Co3  1  0.72143000  0.61190333  0.08333333  1
  Co  Co3  1  0.72143000  0.61190333  0.41666667  1
  Co  Co3  1  0.72143000  0.61190333  0.75000000  1
  Co  Co3  1  0.72143000  0.94523667  0.08333333  1
  Co  Co3  1  0.72143000  0.94523667  0.41666667  1
  Co  Co3  1  0.72143000  0.94523667  0.75000000  1
  Co  Co3  1  0.10952667  0.05476333  0.25000000  1
  Co  Co3  1  0.10952667  0.05476333  0.58333333  1
  Co  Co3  1  0.10952667  0.05476333  0.91666667  1
  Co  Co3  1  0.10952667  0.38809667  0.25000000  1
  Co  Co3  1  0.10952667  0.38809667  0.58333333  1
  Co  Co3  1  0.10952667  0.38809667  0.91666667  1
  Co  Co3  1  0.10952667  0.72143000  0.25000000  1
  Co  Co3  1  0.10952667  0.72143000  0.58333333  1
  Co  Co3  1  0.10952667  0.72143000  0.91666667  1
  Co  Co3  1  0.44286000  0.05476333  0.25000000  1
  Co  Co3  1  0.44286000  0.05476333  0.58333333  1
  Co  Co3  1  0.44286000  0.05476333  0.91666667  1
  Co  Co3  1  0.44286000  0.38809667  0.25000000  1
  Co  Co3  1  0.44286000  0.38809667  0.58333333  1
  Co  Co3  1  0.44286000  0.38809667  0.91666667  1
  Co  Co3  1  0.44286000  0.72143000  0.25000000  1
  Co  Co3  1  0.44286000  0.72143000  0.58333333  1
  Co  Co3  1  0.44286000  0.72143000  0.91666667  1
  Co  Co3  1  0.77619333  0.05476333  0.25000000  1
  Co  Co3  1  0.77619333  0.05476333  0.58333333  1
  Co  Co3  1  0.77619333  0.05476333  0.91666667  1
  Co  Co3  1  0.77619333  0.38809667  0.25000000  1
  Co  Co3  1  0.77619333  0.38809667  0.58333333  1
  Co  Co3  1  0.77619333  0.38809667  0.91666667  1
  Co  Co3  1  0.77619333  0.72143000  0.25000000  1
  Co  Co3  1  0.77619333  0.72143000  0.58333333  1
  Co  Co3  1  0.77619333  0.72143000  0.91666667  1
  Co  Co2  1  0.16666667  0.00000000  0.00000000  1
  Co  Co2  1  0.16666667  0.00000000  0.33333333  1
  Co  Co2  1  0.16666667  0.00000000  0.66666667  1
  Co  Co2  1  0.16666667  0.33333333  0.00000000  1
  Co  Co2  1  0.16666667  0.33333333  0.33333333  1
  Co  Co2  1  0.16666667  0.33333333  0.66666667  1
  Co  Co2  1  0.16666667  0.66666667  0.00000000  1
  Co  Co2  1  0.16666667  0.66666667  0.33333333  1
  Co  Co2  1  0.16666667  0.66666667  0.66666667  1
  Co  Co2  1  0.50000000  0.00000000  0.00000000  1
  Co  Co2  1  0.50000000  0.00000000  0.33333333  1
  Co  Co2  1  0.50000000  0.00000000  0.66666667  1
  Co  Co2  1  0.50000000  0.33333333  0.00000000  1
  Co  Co2  1  0.50000000  0.33333333  0.33333333  1
  Co  Co2  1  0.50000000  0.33333333  0.66666667  1
  Co  Co2  1  0.50000000  0.66666667  0.00000000  1
  Co  Co2  1  0.50000000  0.66666667  0.33333333  1
  Co  Co2  1  0.50000000  0.66666667  0.66666667  1
  Co  Co2  1  0.83333333  0.00000000  0.00000000  1
  Co  Co2  1  0.83333333  0.00000000  0.33333333  1
  Co  Co2  1  0.83333333  0.00000000  0.66666667  1
  Co  Co2  1  0.83333333  0.33333333  0.00000000  1
  Co  Co2  1  0.83333333  0.33333333  0.33333333  1
  Co  Co2  1  0.83333333  0.33333333  0.66666667  1
  Co  Co2  1  0.83333333  0.66666667  0.00000000  1
  Co  Co2  1  0.83333333  0.66666667  0.33333333  1
  Co  Co2  1  0.83333333  0.66666667  0.66666667  1
  Co  Co2  1  0.16666667  0.16666667  0.16666667  1
  Co  Co2  1  0.16666667  0.16666667  0.50000000  1
  Co  Co2  1  0.16666667  0.16666667  0.83333333  1
  Co  Co2  1  0.16666667  0.50000000  0.16666667  1
  Co  Co2  1  0.16666667  0.50000000  0.50000000  1
  Co  Co2  1  0.16666667  0.50000000  0.83333333  1
  Co  Co2  1  0.16666667  0.83333333  0.16666667  1
  Co  Co2  1  0.16666667  0.83333333  0.50000000  1
  Co  Co2  1  0.16666667  0.83333333  0.83333333  1
  Co  Co2  1  0.50000000  0.16666667  0.16666667  1
  Co  Co2  1  0.50000000  0.16666667  0.50000000  1
  Co  Co2  1  0.50000000  0.16666667  0.83333333  1
  Co  Co2  1  0.50000000  0.50000000  0.16666667  1
  Co  Co2  1  0.50000000  0.50000000  0.50000000  1
  Co  Co2  1  0.50000000  0.50000000  0.83333333  1
  Co  Co2  1  0.50000000  0.83333333  0.16666667  1
  Co  Co2  1  0.50000000  0.83333333  0.50000000  1
  Co  Co2  1  0.50000000  0.83333333  0.83333333  1
  Co  Co2  1  0.83333333  0.16666667  0.16666667  1
  Co  Co2  1  0.83333333  0.16666667  0.50000000  1
  Co  Co2  1  0.83333333  0.16666667  0.83333333  1
  Co  Co2  1  0.83333333  0.50000000  0.16666667  1
  Co  Co2  1  0.83333333  0.50000000  0.50000000  1
  Co  Co2  1  0.83333333  0.50000000  0.83333333  1
  Co  Co2  1  0.83333333  0.83333333  0.16666667  1
  Co  Co2  1  0.83333333  0.83333333  0.50000000  1
  Co  Co2  1  0.83333333  0.83333333  0.83333333  1
  Co  Co2  1  0.00000000  0.16666667  0.00000000  1
  Co  Co2  1  0.00000000  0.16666667  0.33333333  1
  Co  Co2  1  0.00000000  0.16666667  0.66666667  1
  Co  Co2  1  0.00000000  0.50000000  0.00000000  1
  Co  Co2  1  0.00000000  0.50000000  0.33333333  1
  Co  Co2  1  0.00000000  0.50000000  0.66666667  1
  Co  Co2  1  0.00000000  0.83333333  0.00000000  1
  Co  Co2  1  0.00000000  0.83333333  0.33333333  1
  Co  Co2  1  0.00000000  0.83333333  0.66666667  1
  Co  Co2  1  0.33333333  0.16666667  0.00000000  1
  Co  Co2  1  0.33333333  0.16666667  0.33333333  1
  Co  Co2  1  0.33333333  0.16666667  0.66666667  1
  Co  Co2  1  0.33333333  0.50000000  0.00000000  1
  Co  Co2  1  0.33333333  0.50000000  0.33333333  1
  Co  Co2  1  0.33333333  0.50000000  0.66666667  1
  Co  Co2  1  0.33333333  0.83333333  0.00000000  1
  Co  Co2  1  0.33333333  0.83333333  0.33333333  1
  Co  Co2  1  0.33333333  0.83333333  0.66666667  1
  Co  Co2  1  0.66666667  0.16666667  0.00000000  1
  Co  Co2  1  0.66666667  0.16666667  0.33333333  1
  Co  Co2  1  0.66666667  0.16666667  0.66666667  1
  Co  Co2  1  0.66666667  0.50000000  0.00000000  1
  Co  Co2  1  0.66666667  0.50000000  0.33333333  1
  Co  Co2  1  0.66666667  0.50000000  0.66666667  1
  Co  Co2  1  0.66666667  0.83333333  0.00000000  1
  Co  Co2  1  0.66666667  0.83333333  0.33333333  1
  Co  Co2  1  0.66666667  0.83333333  0.66666667  1
  Co  Co2  1  0.16666667  0.00000000  0.16666667  1
  Co  Co2  1  0.16666667  0.00000000  0.50000000  1
  Co  Co2  1  0.16666667  0.00000000  0.83333333  1
  Co  Co2  1  0.16666667  0.33333333  0.16666667  1
  Co  Co2  1  0.16666667  0.33333333  0.50000000  1
  Co  Co2  1  0.16666667  0.33333333  0.83333333  1
  Co  Co2  1  0.16666667  0.66666667  0.16666667  1
  Co  Co2  1  0.16666667  0.66666667  0.50000000  1
  Co  Co2  1  0.16666667  0.66666667  0.83333333  1
  Co  Co2  1  0.50000000  0.00000000  0.16666667  1
  Co  Co2  1  0.50000000  0.00000000  0.50000000  1
  Co  Co2  1  0.50000000  0.00000000  0.83333333  1
  Co  Co2  1  0.50000000  0.33333333  0.16666667  1
  Co  Co2  1  0.50000000  0.33333333  0.50000000  1
  Co  Co2  1  0.50000000  0.33333333  0.83333333  1
  Co  Co2  1  0.50000000  0.66666667  0.16666667  1
  Co  Co2  1  0.50000000  0.66666667  0.50000000  1
  Co  Co2  1  0.50000000  0.66666667  0.83333333  1
  Co  Co2  1  0.83333333  0.00000000  0.16666667  1
  Co  Co2  1  0.83333333  0.00000000  0.50000000  1
  Co  Co2  1  0.83333333  0.00000000  0.83333333  1
  Co  Co2  1  0.83333333  0.33333333  0.16666667  1
  Co  Co2  1  0.83333333  0.33333333  0.50000000  1
  Co  Co2  1  0.83333333  0.33333333  0.83333333  1
  Co  Co2  1  0.83333333  0.66666667  0.16666667  1
  Co  Co2  1  0.83333333  0.66666667  0.50000000  1
  Co  Co2  1  0.83333333  0.66666667  0.83333333  1
  Co  Co2  1  0.16666667  0.16666667  0.00000000  1
  Co  Co2  1  0.16666667  0.16666667  0.33333333  1
  Co  Co2  1  0.16666667  0.16666667  0.66666667  1
  Co  Co2  1  0.16666667  0.50000000  0.00000000  1
  Co  Co2  1  0.16666667  0.50000000  0.33333333  1
  Co  Co2  1  0.16666667  0.50000000  0.66666667  1
  Co  Co2  1  0.16666667  0.83333333  0.00000000  1
  Co  Co2  1  0.16666667  0.83333333  0.33333333  1
  Co  Co2  1  0.16666667  0.83333333  0.66666667  1
  Co  Co2  1  0.50000000  0.16666667  0.00000000  1
  Co  Co2  1  0.50000000  0.16666667  0.33333333  1
  Co  Co2  1  0.50000000  0.16666667  0.66666667  1
  Co  Co2  1  0.50000000  0.50000000  0.00000000  1
  Co  Co2  1  0.50000000  0.50000000  0.33333333  1
  Co  Co2  1  0.50000000  0.50000000  0.66666667  1
  Co  Co2  1  0.50000000  0.83333333  0.00000000  1
  Co  Co2  1  0.50000000  0.83333333  0.33333333  1
  Co  Co2  1  0.50000000  0.83333333  0.66666667  1
  Co  Co2  1  0.83333333  0.16666667  0.00000000  1
  Co  Co2  1  0.83333333  0.16666667  0.33333333  1
  Co  Co2  1  0.83333333  0.16666667  0.66666667  1
  Co  Co2  1  0.83333333  0.50000000  0.00000000  1
  Co  Co2  1  0.83333333  0.50000000  0.33333333  1
  Co  Co2  1  0.83333333  0.50000000  0.66666667  1
  Co  Co2  1  0.83333333  0.83333333  0.00000000  1
  Co  Co2  1  0.83333333  0.83333333  0.33333333  1
  Co  Co2  1  0.83333333  0.83333333  0.66666667  1
  Co  Co2  1  0.00000000  0.16666667  0.16666667  1
  Co  Co2  1  0.00000000  0.16666667  0.50000000  1
  Co  Co2  1  0.00000000  0.16666667  0.83333333  1
  Co  Co2  1  0.00000000  0.50000000  0.16666667  1
  Co  Co2  1  0.00000000  0.50000000  0.50000000  1
  Co  Co2  1  0.00000000  0.50000000  0.83333333  1
  Co  Co2  1  0.00000000  0.83333333  0.16666667  1
  Co  Co2  1  0.00000000  0.83333333  0.50000000  1
  Co  Co2  1  0.00000000  0.83333333  0.83333333  1
  Co  Co2  1  0.33333333  0.16666667  0.16666667  1
  Co  Co2  1  0.33333333  0.16666667  0.50000000  1
  Co  Co2  1  0.33333333  0.16666667  0.83333333  1
  Co  Co2  1  0.33333333  0.50000000  0.16666667  1
  Co  Co2  1  0.33333333  0.50000000  0.50000000  1
  Co  Co2  1  0.33333333  0.50000000  0.83333333  1
  Co  Co2  1  0.33333333  0.83333333  0.16666667  1
  Co  Co2  1  0.33333333  0.83333333  0.50000000  1
  Co  Co2  1  0.33333333  0.83333333  0.83333333  1
  Co  Co2  1  0.66666667  0.16666667  0.16666667  1
  Co  Co2  1  0.66666667  0.16666667  0.50000000  1
  Co  Co2  1  0.66666667  0.16666667  0.83333333  1
  Co  Co2  1  0.66666667  0.50000000  0.16666667  1
  Co  Co2  1  0.66666667  0.50000000  0.50000000  1
  Co  Co2  1  0.66666667  0.50000000  0.83333333  1
  Co  Co2  1  0.66666667  0.83333333  0.16666667  1
  Co  Co2  1  0.66666667  0.83333333  0.50000000  1
  Co  Co2  1  0.66666667  0.83333333  0.83333333  1
