# generated using pymatgen
data_TaCo2
_symmetry_space_group_name_H-M   'P 1'
_cell_length_a   24.20000000
_cell_length_b   24.20000000
_cell_length_c   39.30000000
_cell_angle_alpha   90.00000000
_cell_angle_beta   90.00000000
_cell_angle_gamma   90.00000000
_symmetry_Int_Tables_number   1
_chemical_formula_structural   TaCo2
_chemical_formula_sum   'Ta500 Co1000'
_cell_volume   23015.65200000
_cell_formula_units_Z   500
loop_
 _symmetry_equiv_pos_site_id
 _symmetry_equiv_pos_as_xyz
  1  'x, y, z'
loop_
 _atom_site_type_symbol
 _atom_site_label
 _atom_site_symmetry_multiplicity
 _atom_site_fract_x
 _atom_site_fract_y
 _atom_site_fract_z
 _atom_site_occupancy
  Ta  Ta1  1  0.06666667  0.13333333  0.01336100  1
  Ta  Ta1  1  0.06666667  0.13333333  0.21336100  1
  Ta  Ta1  1  0.06666667  0.13333333  0.41336100  1
  Ta  Ta1  1  0.06666667  0.13333333  0.61336100  1
  Ta  Ta1  1  0.06666667  0.13333333  0.81336100  1
  Ta  Ta1  1  0.06666667  0.33333333  0.01336100  1
  Ta  Ta1  1  0.06666667  0.33333333  0.21336100  1
  Ta  Ta1  1  0.06666667  0.33333333  0.41336100  1
  Ta  Ta1  1  0.06666667  0.33333333  0.61336100  1
  Ta  Ta1  1  0.06666667  0.33333333  0.81336100  1
  Ta  Ta1  1  0.06666667  0.53333333  0.01336100  1
  Ta  Ta1  1  0.06666667  0.53333333  0.21336100  1
  Ta  Ta1  1  0.06666667  0.53333333  0.41336100  1
  Ta  Ta1  1  0.06666667  0.53333333  0.61336100  1
  Ta  Ta1  1  0.06666667  0.53333333  0.81336100  1
  Ta  Ta1  1  0.06666667  0.73333333  0.01336100  1
  Ta  Ta1  1  0.06666667  0.73333333  0.21336100  1
  Ta  Ta1  1  0.06666667  0.73333333  0.41336100  1
  Ta  Ta1  1  0.06666667  0.73333333  0.61336100  1
  Ta  Ta1  1  0.06666667  0.73333333  0.81336100  1
  Ta  Ta1  1  0.06666667  0.93333333  0.01336100  1
  Ta  Ta1  1  0.06666667  0.93333333  0.21336100  1
  Ta  Ta1  1  0.06666667  0.93333333  0.41336100  1
  Ta  Ta1  1  0.06666667  0.93333333  0.61336100  1
  Ta  Ta1  1  0.06666667  0.93333333  0.81336100  1
  Ta  Ta1  1  0.26666667  0.13333333  0.01336100  1
  Ta  Ta1  1  0.26666667  0.13333333  0.21336100  1
  Ta  Ta1  1  0.26666667  0.13333333  0.41336100  1
  Ta  Ta1  1  0.26666667  0.13333333  0.61336100  1
  Ta  Ta1  1  0.26666667  0.13333333  0.81336100  1
  Ta  Ta1  1  0.26666667  0.33333333  0.01336100  1
  Ta  Ta1  1  0.26666667  0.33333333  0.21336100  1
  Ta  Ta1  1  0.26666667  0.33333333  0.41336100  1
  Ta  Ta1  1  0.26666667  0.33333333  0.61336100  1
  Ta  Ta1  1  0.26666667  0.33333333  0.81336100  1
  Ta  Ta1  1  0.26666667  0.53333333  0.01336100  1
  Ta  Ta1  1  0.26666667  0.53333333  0.21336100  1
  Ta  Ta1  1  0.26666667  0.53333333  0.41336100  1
  Ta  Ta1  1  0.26666667  0.53333333  0.61336100  1
  Ta  Ta1  1  0.26666667  0.53333333  0.81336100  1
  Ta  Ta1  1  0.26666667  0.73333333  0.01336100  1
  Ta  Ta1  1  0.26666667  0.73333333  0.21336100  1
  Ta  Ta1  1  0.26666667  0.73333333  0.41336100  1
  Ta  Ta1  1  0.26666667  0.73333333  0.61336100  1
  Ta  Ta1  1  0.26666667  0.73333333  0.81336100  1
  Ta  Ta1  1  0.26666667  0.93333333  0.01336100  1
  Ta  Ta1  1  0.26666667  0.93333333  0.21336100  1
  Ta  Ta1  1  0.26666667  0.93333333  0.41336100  1
  Ta  Ta1  1  0.26666667  0.93333333  0.61336100  1
  Ta  Ta1  1  0.26666667  0.93333333  0.81336100  1
  Ta  Ta1  1  0.46666667  0.13333333  0.01336100  1
  Ta  Ta1  1  0.46666667  0.13333333  0.21336100  1
  Ta  Ta1  1  0.46666667  0.13333333  0.41336100  1
  Ta  Ta1  1  0.46666667  0.13333333  0.61336100  1
  Ta  Ta1  1  0.46666667  0.13333333  0.81336100  1
  Ta  Ta1  1  0.46666667  0.33333333  0.01336100  1
  Ta  Ta1  1  0.46666667  0.33333333  0.21336100  1
  Ta  Ta1  1  0.46666667  0.33333333  0.41336100  1
  Ta  Ta1  1  0.46666667  0.33333333  0.61336100  1
  Ta  Ta1  1  0.46666667  0.33333333  0.81336100  1
  Ta  Ta1  1  0.46666667  0.53333333  0.01336100  1
  Ta  Ta1  1  0.46666667  0.53333333  0.21336100  1
  Ta  Ta1  1  0.46666667  0.53333333  0.41336100  1
  Ta  Ta1  1  0.46666667  0.53333333  0.61336100  1
  Ta  Ta1  1  0.46666667  0.53333333  0.81336100  1
  Ta  Ta1  1  0.46666667  0.73333333  0.01336100  1
  Ta  Ta1  1  0.46666667  0.73333333  0.21336100  1
  Ta  Ta1  1  0.46666667  0.73333333  0.41336100  1
  Ta  Ta1  1  0.46666667  0.73333333  0.61336100  1
  Ta  Ta1  1  0.46666667  0.73333333  0.81336100  1
  Ta  Ta1  1  0.46666667  0.93333333  0.01336100  1
  Ta  Ta1  1  0.46666667  0.93333333  0.21336100  1
  Ta  Ta1  1  0.46666667  0.93333333  0.41336100  1
  Ta  Ta1  1  0.46666667  0.93333333  0.61336100  1
  Ta  Ta1  1  0.46666667  0.93333333  0.81336100  1
  Ta  Ta1  1  0.66666667  0.13333333  0.01336100  1
  Ta  Ta1  1  0.66666667  0.13333333  0.21336100  1
  Ta  Ta1  1  0.66666667  0.13333333  0.41336100  1
  Ta  Ta1  1  0.66666667  0.13333333  0.61336100  1
  Ta  Ta1  1  0.66666667  0.13333333  0.81336100  1
  Ta  Ta1  1  0.66666667  0.33333333  0.01336100  1
  Ta  Ta1  1  0.66666667  0.33333333  0.21336100  1
  Ta  Ta1  1  0.66666667  0.33333333  0.41336100  1
  Ta  Ta1  1  0.66666667  0.33333333  0.61336100  1
  Ta  Ta1  1  0.66666667  0.33333333  0.81336100  1
  Ta  Ta1  1  0.66666667  0.53333333  0.01336100  1
  Ta  Ta1  1  0.66666667  0.53333333  0.21336100  1
  Ta  Ta1  1  0.66666667  0.53333333  0.41336100  1
  Ta  Ta1  1  0.66666667  0.53333333  0.61336100  1
  Ta  Ta1  1  0.66666667  0.53333333  0.81336100  1
  Ta  Ta1  1  0.66666667  0.73333333  0.01336100  1
  Ta  Ta1  1  0.66666667  0.73333333  0.21336100  1
  Ta  Ta1  1  0.66666667  0.73333333  0.41336100  1
  Ta  Ta1  1  0.66666667  0.73333333  0.61336100  1
  Ta  Ta1  1  0.66666667  0.73333333  0.81336100  1
  Ta  Ta1  1  0.66666667  0.93333333  0.01336100  1
  Ta  Ta1  1  0.66666667  0.93333333  0.21336100  1
  Ta  Ta1  1  0.66666667  0.93333333  0.41336100  1
  Ta  Ta1  1  0.66666667  0.93333333  0.61336100  1
  Ta  Ta1  1  0.66666667  0.93333333  0.81336100  1
  Ta  Ta1  1  0.86666667  0.13333333  0.01336100  1
  Ta  Ta1  1  0.86666667  0.13333333  0.21336100  1
  Ta  Ta1  1  0.86666667  0.13333333  0.41336100  1
  Ta  Ta1  1  0.86666667  0.13333333  0.61336100  1
  Ta  Ta1  1  0.86666667  0.13333333  0.81336100  1
  Ta  Ta1  1  0.86666667  0.33333333  0.01336100  1
  Ta  Ta1  1  0.86666667  0.33333333  0.21336100  1
  Ta  Ta1  1  0.86666667  0.33333333  0.41336100  1
  Ta  Ta1  1  0.86666667  0.33333333  0.61336100  1
  Ta  Ta1  1  0.86666667  0.33333333  0.81336100  1
  Ta  Ta1  1  0.86666667  0.53333333  0.01336100  1
  Ta  Ta1  1  0.86666667  0.53333333  0.21336100  1
  Ta  Ta1  1  0.86666667  0.53333333  0.41336100  1
  Ta  Ta1  1  0.86666667  0.53333333  0.61336100  1
  Ta  Ta1  1  0.86666667  0.53333333  0.81336100  1
  Ta  Ta1  1  0.86666667  0.73333333  0.01336100  1
  Ta  Ta1  1  0.86666667  0.73333333  0.21336100  1
  Ta  Ta1  1  0.86666667  0.73333333  0.41336100  1
  Ta  Ta1  1  0.86666667  0.73333333  0.61336100  1
  Ta  Ta1  1  0.86666667  0.73333333  0.81336100  1
  Ta  Ta1  1  0.86666667  0.93333333  0.01336100  1
  Ta  Ta1  1  0.86666667  0.93333333  0.21336100  1
  Ta  Ta1  1  0.86666667  0.93333333  0.41336100  1
  Ta  Ta1  1  0.86666667  0.93333333  0.61336100  1
  Ta  Ta1  1  0.86666667  0.93333333  0.81336100  1
  Ta  Ta1  1  0.13333333  0.06666667  0.18663900  1
  Ta  Ta1  1  0.13333333  0.06666667  0.38663900  1
  Ta  Ta1  1  0.13333333  0.06666667  0.58663900  1
  Ta  Ta1  1  0.13333333  0.06666667  0.78663900  1
  Ta  Ta1  1  0.13333333  0.06666667  0.98663900  1
  Ta  Ta1  1  0.13333333  0.26666667  0.18663900  1
  Ta  Ta1  1  0.13333333  0.26666667  0.38663900  1
  Ta  Ta1  1  0.13333333  0.26666667  0.58663900  1
  Ta  Ta1  1  0.13333333  0.26666667  0.78663900  1
  Ta  Ta1  1  0.13333333  0.26666667  0.98663900  1
  Ta  Ta1  1  0.13333333  0.46666667  0.18663900  1
  Ta  Ta1  1  0.13333333  0.46666667  0.38663900  1
  Ta  Ta1  1  0.13333333  0.46666667  0.58663900  1
  Ta  Ta1  1  0.13333333  0.46666667  0.78663900  1
  Ta  Ta1  1  0.13333333  0.46666667  0.98663900  1
  Ta  Ta1  1  0.13333333  0.66666667  0.18663900  1
  Ta  Ta1  1  0.13333333  0.66666667  0.38663900  1
  Ta  Ta1  1  0.13333333  0.66666667  0.58663900  1
  Ta  Ta1  1  0.13333333  0.66666667  0.78663900  1
  Ta  Ta1  1  0.13333333  0.66666667  0.98663900  1
  Ta  Ta1  1  0.13333333  0.86666667  0.18663900  1
  Ta  Ta1  1  0.13333333  0.86666667  0.38663900  1
  Ta  Ta1  1  0.13333333  0.86666667  0.58663900  1
  Ta  Ta1  1  0.13333333  0.86666667  0.78663900  1
  Ta  Ta1  1  0.13333333  0.86666667  0.98663900  1
  Ta  Ta1  1  0.33333333  0.06666667  0.18663900  1
  Ta  Ta1  1  0.33333333  0.06666667  0.38663900  1
  Ta  Ta1  1  0.33333333  0.06666667  0.58663900  1
  Ta  Ta1  1  0.33333333  0.06666667  0.78663900  1
  Ta  Ta1  1  0.33333333  0.06666667  0.98663900  1
  Ta  Ta1  1  0.33333333  0.26666667  0.18663900  1
  Ta  Ta1  1  0.33333333  0.26666667  0.38663900  1
  Ta  Ta1  1  0.33333333  0.26666667  0.58663900  1
  Ta  Ta1  1  0.33333333  0.26666667  0.78663900  1
  Ta  Ta1  1  0.33333333  0.26666667  0.98663900  1
  Ta  Ta1  1  0.33333333  0.46666667  0.18663900  1
  Ta  Ta1  1  0.33333333  0.46666667  0.38663900  1
  Ta  Ta1  1  0.33333333  0.46666667  0.58663900  1
  Ta  Ta1  1  0.33333333  0.46666667  0.78663900  1
  Ta  Ta1  1  0.33333333  0.46666667  0.98663900  1
  Ta  Ta1  1  0.33333333  0.66666667  0.18663900  1
  Ta  Ta1  1  0.33333333  0.66666667  0.38663900  1
  Ta  Ta1  1  0.33333333  0.66666667  0.58663900  1
  Ta  Ta1  1  0.33333333  0.66666667  0.78663900  1
  Ta  Ta1  1  0.33333333  0.66666667  0.98663900  1
  Ta  Ta1  1  0.33333333  0.86666667  0.18663900  1
  Ta  Ta1  1  0.33333333  0.86666667  0.38663900  1
  Ta  Ta1  1  0.33333333  0.86666667  0.58663900  1
  Ta  Ta1  1  0.33333333  0.86666667  0.78663900  1
  Ta  Ta1  1  0.33333333  0.86666667  0.98663900  1
  Ta  Ta1  1  0.53333333  0.06666667  0.18663900  1
  Ta  Ta1  1  0.53333333  0.06666667  0.38663900  1
  Ta  Ta1  1  0.53333333  0.06666667  0.58663900  1
  Ta  Ta1  1  0.53333333  0.06666667  0.78663900  1
  Ta  Ta1  1  0.53333333  0.06666667  0.98663900  1
  Ta  Ta1  1  0.53333333  0.26666667  0.18663900  1
  Ta  Ta1  1  0.53333333  0.26666667  0.38663900  1
  Ta  Ta1  1  0.53333333  0.26666667  0.58663900  1
  Ta  Ta1  1  0.53333333  0.26666667  0.78663900  1
  Ta  Ta1  1  0.53333333  0.26666667  0.98663900  1
  Ta  Ta1  1  0.53333333  0.46666667  0.18663900  1
  Ta  Ta1  1  0.53333333  0.46666667  0.38663900  1
  Ta  Ta1  1  0.53333333  0.46666667  0.58663900  1
  Ta  Ta1  1  0.53333333  0.46666667  0.78663900  1
  Ta  Ta1  1  0.53333333  0.46666667  0.98663900  1
  Ta  Ta1  1  0.53333333  0.66666667  0.18663900  1
  Ta  Ta1  1  0.53333333  0.66666667  0.38663900  1
  Ta  Ta1  1  0.53333333  0.66666667  0.58663900  1
  Ta  Ta1  1  0.53333333  0.66666667  0.78663900  1
  Ta  Ta1  1  0.53333333  0.66666667  0.98663900  1
  Ta  Ta1  1  0.53333333  0.86666667  0.18663900  1
  Ta  Ta1  1  0.53333333  0.86666667  0.38663900  1
  Ta  Ta1  1  0.53333333  0.86666667  0.58663900  1
  Ta  Ta1  1  0.53333333  0.86666667  0.78663900  1
  Ta  Ta1  1  0.53333333  0.86666667  0.98663900  1
  Ta  Ta1  1  0.73333333  0.06666667  0.18663900  1
  Ta  Ta1  1  0.73333333  0.06666667  0.38663900  1
  Ta  Ta1  1  0.73333333  0.06666667  0.58663900  1
  Ta  Ta1  1  0.73333333  0.06666667  0.78663900  1
  Ta  Ta1  1  0.73333333  0.06666667  0.98663900  1
  Ta  Ta1  1  0.73333333  0.26666667  0.18663900  1
  Ta  Ta1  1  0.73333333  0.26666667  0.38663900  1
  Ta  Ta1  1  0.73333333  0.26666667  0.58663900  1
  Ta  Ta1  1  0.73333333  0.26666667  0.78663900  1
  Ta  Ta1  1  0.73333333  0.26666667  0.98663900  1
  Ta  Ta1  1  0.73333333  0.46666667  0.18663900  1
  Ta  Ta1  1  0.73333333  0.46666667  0.38663900  1
  Ta  Ta1  1  0.73333333  0.46666667  0.58663900  1
  Ta  Ta1  1  0.73333333  0.46666667  0.78663900  1
  Ta  Ta1  1  0.73333333  0.46666667  0.98663900  1
  Ta  Ta1  1  0.73333333  0.66666667  0.18663900  1
  Ta  Ta1  1  0.73333333  0.66666667  0.38663900  1
  Ta  Ta1  1  0.73333333  0.66666667  0.58663900  1
  Ta  Ta1  1  0.73333333  0.66666667  0.78663900  1
  Ta  Ta1  1  0.73333333  0.66666667  0.98663900  1
  Ta  Ta1  1  0.73333333  0.86666667  0.18663900  1
  Ta  Ta1  1  0.73333333  0.86666667  0.38663900  1
  Ta  Ta1  1  0.73333333  0.86666667  0.58663900  1
  Ta  Ta1  1  0.73333333  0.86666667  0.78663900  1
  Ta  Ta1  1  0.73333333  0.86666667  0.98663900  1
  Ta  Ta1  1  0.93333333  0.06666667  0.18663900  1
  Ta  Ta1  1  0.93333333  0.06666667  0.38663900  1
  Ta  Ta1  1  0.93333333  0.06666667  0.58663900  1
  Ta  Ta1  1  0.93333333  0.06666667  0.78663900  1
  Ta  Ta1  1  0.93333333  0.06666667  0.98663900  1
  Ta  Ta1  1  0.93333333  0.26666667  0.18663900  1
  Ta  Ta1  1  0.93333333  0.26666667  0.38663900  1
  Ta  Ta1  1  0.93333333  0.26666667  0.58663900  1
  Ta  Ta1  1  0.93333333  0.26666667  0.78663900  1
  Ta  Ta1  1  0.93333333  0.26666667  0.98663900  1
  Ta  Ta1  1  0.93333333  0.46666667  0.18663900  1
  Ta  Ta1  1  0.93333333  0.46666667  0.38663900  1
  Ta  Ta1  1  0.93333333  0.46666667  0.58663900  1
  Ta  Ta1  1  0.93333333  0.46666667  0.78663900  1
  Ta  Ta1  1  0.93333333  0.46666667  0.98663900  1
  Ta  Ta1  1  0.93333333  0.66666667  0.18663900  1
  Ta  Ta1  1  0.93333333  0.66666667  0.38663900  1
  Ta  Ta1  1  0.93333333  0.66666667  0.58663900  1
  Ta  Ta1  1  0.93333333  0.66666667  0.78663900  1
  Ta  Ta1  1  0.93333333  0.66666667  0.98663900  1
  Ta  Ta1  1  0.93333333  0.86666667  0.18663900  1
  Ta  Ta1  1  0.93333333  0.86666667  0.38663900  1
  Ta  Ta1  1  0.93333333  0.86666667  0.58663900  1
  Ta  Ta1  1  0.93333333  0.86666667  0.78663900  1
  Ta  Ta1  1  0.93333333  0.86666667  0.98663900  1
  Ta  Ta1  1  0.13333333  0.06666667  0.11336100  1
  Ta  Ta1  1  0.13333333  0.06666667  0.31336100  1
  Ta  Ta1  1  0.13333333  0.06666667  0.51336100  1
  Ta  Ta1  1  0.13333333  0.06666667  0.71336100  1
  Ta  Ta1  1  0.13333333  0.06666667  0.91336100  1
  Ta  Ta1  1  0.13333333  0.26666667  0.11336100  1
  Ta  Ta1  1  0.13333333  0.26666667  0.31336100  1
  Ta  Ta1  1  0.13333333  0.26666667  0.51336100  1
  Ta  Ta1  1  0.13333333  0.26666667  0.71336100  1
  Ta  Ta1  1  0.13333333  0.26666667  0.91336100  1
  Ta  Ta1  1  0.13333333  0.46666667  0.11336100  1
  Ta  Ta1  1  0.13333333  0.46666667  0.31336100  1
  Ta  Ta1  1  0.13333333  0.46666667  0.51336100  1
  Ta  Ta1  1  0.13333333  0.46666667  0.71336100  1
  Ta  Ta1  1  0.13333333  0.46666667  0.91336100  1
  Ta  Ta1  1  0.13333333  0.66666667  0.11336100  1
  Ta  Ta1  1  0.13333333  0.66666667  0.31336100  1
  Ta  Ta1  1  0.13333333  0.66666667  0.51336100  1
  Ta  Ta1  1  0.13333333  0.66666667  0.71336100  1
  Ta  Ta1  1  0.13333333  0.66666667  0.91336100  1
  Ta  Ta1  1  0.13333333  0.86666667  0.11336100  1
  Ta  Ta1  1  0.13333333  0.86666667  0.31336100  1
  Ta  Ta1  1  0.13333333  0.86666667  0.51336100  1
  Ta  Ta1  1  0.13333333  0.86666667  0.71336100  1
  Ta  Ta1  1  0.13333333  0.86666667  0.91336100  1
  Ta  Ta1  1  0.33333333  0.06666667  0.11336100  1
  Ta  Ta1  1  0.33333333  0.06666667  0.31336100  1
  Ta  Ta1  1  0.33333333  0.06666667  0.51336100  1
  Ta  Ta1  1  0.33333333  0.06666667  0.71336100  1
  Ta  Ta1  1  0.33333333  0.06666667  0.91336100  1
  Ta  Ta1  1  0.33333333  0.26666667  0.11336100  1
  Ta  Ta1  1  0.33333333  0.26666667  0.31336100  1
  Ta  Ta1  1  0.33333333  0.26666667  0.51336100  1
  Ta  Ta1  1  0.33333333  0.26666667  0.71336100  1
  Ta  Ta1  1  0.33333333  0.26666667  0.91336100  1
  Ta  Ta1  1  0.33333333  0.46666667  0.11336100  1
  Ta  Ta1  1  0.33333333  0.46666667  0.31336100  1
  Ta  Ta1  1  0.33333333  0.46666667  0.51336100  1
  Ta  Ta1  1  0.33333333  0.46666667  0.71336100  1
  Ta  Ta1  1  0.33333333  0.46666667  0.91336100  1
  Ta  Ta1  1  0.33333333  0.66666667  0.11336100  1
  Ta  Ta1  1  0.33333333  0.66666667  0.31336100  1
  Ta  Ta1  1  0.33333333  0.66666667  0.51336100  1
  Ta  Ta1  1  0.33333333  0.66666667  0.71336100  1
  Ta  Ta1  1  0.33333333  0.66666667  0.91336100  1
  Ta  Ta1  1  0.33333333  0.86666667  0.11336100  1
  Ta  Ta1  1  0.33333333  0.86666667  0.31336100  1
  Ta  Ta1  1  0.33333333  0.86666667  0.51336100  1
  Ta  Ta1  1  0.33333333  0.86666667  0.71336100  1
  Ta  Ta1  1  0.33333333  0.86666667  0.91336100  1
  Ta  Ta1  1  0.53333333  0.06666667  0.11336100  1
  Ta  Ta1  1  0.53333333  0.06666667  0.31336100  1
  Ta  Ta1  1  0.53333333  0.06666667  0.51336100  1
  Ta  Ta1  1  0.53333333  0.06666667  0.71336100  1
  Ta  Ta1  1  0.53333333  0.06666667  0.91336100  1
  Ta  Ta1  1  0.53333333  0.26666667  0.11336100  1
  Ta  Ta1  1  0.53333333  0.26666667  0.31336100  1
  Ta  Ta1  1  0.53333333  0.26666667  0.51336100  1
  Ta  Ta1  1  0.53333333  0.26666667  0.71336100  1
  Ta  Ta1  1  0.53333333  0.26666667  0.91336100  1
  Ta  Ta1  1  0.53333333  0.46666667  0.11336100  1
  Ta  Ta1  1  0.53333333  0.46666667  0.31336100  1
  Ta  Ta1  1  0.53333333  0.46666667  0.51336100  1
  Ta  Ta1  1  0.53333333  0.46666667  0.71336100  1
  Ta  Ta1  1  0.53333333  0.46666667  0.91336100  1
  Ta  Ta1  1  0.53333333  0.66666667  0.11336100  1
  Ta  Ta1  1  0.53333333  0.66666667  0.31336100  1
  Ta  Ta1  1  0.53333333  0.66666667  0.51336100  1
  Ta  Ta1  1  0.53333333  0.66666667  0.71336100  1
  Ta  Ta1  1  0.53333333  0.66666667  0.91336100  1
  Ta  Ta1  1  0.53333333  0.86666667  0.11336100  1
  Ta  Ta1  1  0.53333333  0.86666667  0.31336100  1
  Ta  Ta1  1  0.53333333  0.86666667  0.51336100  1
  Ta  Ta1  1  0.53333333  0.86666667  0.71336100  1
  Ta  Ta1  1  0.53333333  0.86666667  0.91336100  1
  Ta  Ta1  1  0.73333333  0.06666667  0.11336100  1
  Ta  Ta1  1  0.73333333  0.06666667  0.31336100  1
  Ta  Ta1  1  0.73333333  0.06666667  0.51336100  1
  Ta  Ta1  1  0.73333333  0.06666667  0.71336100  1
  Ta  Ta1  1  0.73333333  0.06666667  0.91336100  1
  Ta  Ta1  1  0.73333333  0.26666667  0.11336100  1
  Ta  Ta1  1  0.73333333  0.26666667  0.31336100  1
  Ta  Ta1  1  0.73333333  0.26666667  0.51336100  1
  Ta  Ta1  1  0.73333333  0.26666667  0.71336100  1
  Ta  Ta1  1  0.73333333  0.26666667  0.91336100  1
  Ta  Ta1  1  0.73333333  0.46666667  0.11336100  1
  Ta  Ta1  1  0.73333333  0.46666667  0.31336100  1
  Ta  Ta1  1  0.73333333  0.46666667  0.51336100  1
  Ta  Ta1  1  0.73333333  0.46666667  0.71336100  1
  Ta  Ta1  1  0.73333333  0.46666667  0.91336100  1
  Ta  Ta1  1  0.73333333  0.66666667  0.11336100  1
  Ta  Ta1  1  0.73333333  0.66666667  0.31336100  1
  Ta  Ta1  1  0.73333333  0.66666667  0.51336100  1
  Ta  Ta1  1  0.73333333  0.66666667  0.71336100  1
  Ta  Ta1  1  0.73333333  0.66666667  0.91336100  1
  Ta  Ta1  1  0.73333333  0.86666667  0.11336100  1
  Ta  Ta1  1  0.73333333  0.86666667  0.31336100  1
  Ta  Ta1  1  0.73333333  0.86666667  0.51336100  1
  Ta  Ta1  1  0.73333333  0.86666667  0.71336100  1
  Ta  Ta1  1  0.73333333  0.86666667  0.91336100  1
  Ta  Ta1  1  0.93333333  0.06666667  0.11336100  1
  Ta  Ta1  1  0.93333333  0.06666667  0.31336100  1
  Ta  Ta1  1  0.93333333  0.06666667  0.51336100  1
  Ta  Ta1  1  0.93333333  0.06666667  0.71336100  1
  Ta  Ta1  1  0.93333333  0.06666667  0.91336100  1
  Ta  Ta1  1  0.93333333  0.26666667  0.11336100  1
  Ta  Ta1  1  0.93333333  0.26666667  0.31336100  1
  Ta  Ta1  1  0.93333333  0.26666667  0.51336100  1
  Ta  Ta1  1  0.93333333  0.26666667  0.71336100  1
  Ta  Ta1  1  0.93333333  0.26666667  0.91336100  1
  Ta  Ta1  1  0.93333333  0.46666667  0.11336100  1
  Ta  Ta1  1  0.93333333  0.46666667  0.31336100  1
  Ta  Ta1  1  0.93333333  0.46666667  0.51336100  1
  Ta  Ta1  1  0.93333333  0.46666667  0.71336100  1
  Ta  Ta1  1  0.93333333  0.46666667  0.91336100  1
  Ta  Ta1  1  0.93333333  0.66666667  0.11336100  1
  Ta  Ta1  1  0.93333333  0.66666667  0.31336100  1
  Ta  Ta1  1  0.93333333  0.66666667  0.51336100  1
  Ta  Ta1  1  0.93333333  0.66666667  0.71336100  1
  Ta  Ta1  1  0.93333333  0.66666667  0.91336100  1
  Ta  Ta1  1  0.93333333  0.86666667  0.11336100  1
  Ta  Ta1  1  0.93333333  0.86666667  0.31336100  1
  Ta  Ta1  1  0.93333333  0.86666667  0.51336100  1
  Ta  Ta1  1  0.93333333  0.86666667  0.71336100  1
  Ta  Ta1  1  0.93333333  0.86666667  0.91336100  1
  Ta  Ta1  1  0.06666667  0.13333333  0.08663900  1
  Ta  Ta1  1  0.06666667  0.13333333  0.28663900  1
  Ta  Ta1  1  0.06666667  0.13333333  0.48663900  1
  Ta  Ta1  1  0.06666667  0.13333333  0.68663900  1
  Ta  Ta1  1  0.06666667  0.13333333  0.88663900  1
  Ta  Ta1  1  0.06666667  0.33333333  0.08663900  1
  Ta  Ta1  1  0.06666667  0.33333333  0.28663900  1
  Ta  Ta1  1  0.06666667  0.33333333  0.48663900  1
  Ta  Ta1  1  0.06666667  0.33333333  0.68663900  1
  Ta  Ta1  1  0.06666667  0.33333333  0.88663900  1
  Ta  Ta1  1  0.06666667  0.53333333  0.08663900  1
  Ta  Ta1  1  0.06666667  0.53333333  0.28663900  1
  Ta  Ta1  1  0.06666667  0.53333333  0.48663900  1
  Ta  Ta1  1  0.06666667  0.53333333  0.68663900  1
  Ta  Ta1  1  0.06666667  0.53333333  0.88663900  1
  Ta  Ta1  1  0.06666667  0.73333333  0.08663900  1
  Ta  Ta1  1  0.06666667  0.73333333  0.28663900  1
  Ta  Ta1  1  0.06666667  0.73333333  0.48663900  1
  Ta  Ta1  1  0.06666667  0.73333333  0.68663900  1
  Ta  Ta1  1  0.06666667  0.73333333  0.88663900  1
  Ta  Ta1  1  0.06666667  0.93333333  0.08663900  1
  Ta  Ta1  1  0.06666667  0.93333333  0.28663900  1
  Ta  Ta1  1  0.06666667  0.93333333  0.48663900  1
  Ta  Ta1  1  0.06666667  0.93333333  0.68663900  1
  Ta  Ta1  1  0.06666667  0.93333333  0.88663900  1
  Ta  Ta1  1  0.26666667  0.13333333  0.08663900  1
  Ta  Ta1  1  0.26666667  0.13333333  0.28663900  1
  Ta  Ta1  1  0.26666667  0.13333333  0.48663900  1
  Ta  Ta1  1  0.26666667  0.13333333  0.68663900  1
  Ta  Ta1  1  0.26666667  0.13333333  0.88663900  1
  Ta  Ta1  1  0.26666667  0.33333333  0.08663900  1
  Ta  Ta1  1  0.26666667  0.33333333  0.28663900  1
  Ta  Ta1  1  0.26666667  0.33333333  0.48663900  1
  Ta  Ta1  1  0.26666667  0.33333333  0.68663900  1
  Ta  Ta1  1  0.26666667  0.33333333  0.88663900  1
  Ta  Ta1  1  0.26666667  0.53333333  0.08663900  1
  Ta  Ta1  1  0.26666667  0.53333333  0.28663900  1
  Ta  Ta1  1  0.26666667  0.53333333  0.48663900  1
  Ta  Ta1  1  0.26666667  0.53333333  0.68663900  1
  Ta  Ta1  1  0.26666667  0.53333333  0.88663900  1
  Ta  Ta1  1  0.26666667  0.73333333  0.08663900  1
  Ta  Ta1  1  0.26666667  0.73333333  0.28663900  1
  Ta  Ta1  1  0.26666667  0.73333333  0.48663900  1
  Ta  Ta1  1  0.26666667  0.73333333  0.68663900  1
  Ta  Ta1  1  0.26666667  0.73333333  0.88663900  1
  Ta  Ta1  1  0.26666667  0.93333333  0.08663900  1
  Ta  Ta1  1  0.26666667  0.93333333  0.28663900  1
  Ta  Ta1  1  0.26666667  0.93333333  0.48663900  1
  Ta  Ta1  1  0.26666667  0.93333333  0.68663900  1
  Ta  Ta1  1  0.26666667  0.93333333  0.88663900  1
  Ta  Ta1  1  0.46666667  0.13333333  0.08663900  1
  Ta  Ta1  1  0.46666667  0.13333333  0.28663900  1
  Ta  Ta1  1  0.46666667  0.13333333  0.48663900  1
  Ta  Ta1  1  0.46666667  0.13333333  0.68663900  1
  Ta  Ta1  1  0.46666667  0.13333333  0.88663900  1
  Ta  Ta1  1  0.46666667  0.33333333  0.08663900  1
  Ta  Ta1  1  0.46666667  0.33333333  0.28663900  1
  Ta  Ta1  1  0.46666667  0.33333333  0.48663900  1
  Ta  Ta1  1  0.46666667  0.33333333  0.68663900  1
  Ta  Ta1  1  0.46666667  0.33333333  0.88663900  1
  Ta  Ta1  1  0.46666667  0.53333333  0.08663900  1
  Ta  Ta1  1  0.46666667  0.53333333  0.28663900  1
  Ta  Ta1  1  0.46666667  0.53333333  0.48663900  1
  Ta  Ta1  1  0.46666667  0.53333333  0.68663900  1
  Ta  Ta1  1  0.46666667  0.53333333  0.88663900  1
  Ta  Ta1  1  0.46666667  0.73333333  0.08663900  1
  Ta  Ta1  1  0.46666667  0.73333333  0.28663900  1
  Ta  Ta1  1  0.46666667  0.73333333  0.48663900  1
  Ta  Ta1  1  0.46666667  0.73333333  0.68663900  1
  Ta  Ta1  1  0.46666667  0.73333333  0.88663900  1
  Ta  Ta1  1  0.46666667  0.93333333  0.08663900  1
  Ta  Ta1  1  0.46666667  0.93333333  0.28663900  1
  Ta  Ta1  1  0.46666667  0.93333333  0.48663900  1
  Ta  Ta1  1  0.46666667  0.93333333  0.68663900  1
  Ta  Ta1  1  0.46666667  0.93333333  0.88663900  1
  Ta  Ta1  1  0.66666667  0.13333333  0.08663900  1
  Ta  Ta1  1  0.66666667  0.13333333  0.28663900  1
  Ta  Ta1  1  0.66666667  0.13333333  0.48663900  1
  Ta  Ta1  1  0.66666667  0.13333333  0.68663900  1
  Ta  Ta1  1  0.66666667  0.13333333  0.88663900  1
  Ta  Ta1  1  0.66666667  0.33333333  0.08663900  1
  Ta  Ta1  1  0.66666667  0.33333333  0.28663900  1
  Ta  Ta1  1  0.66666667  0.33333333  0.48663900  1
  Ta  Ta1  1  0.66666667  0.33333333  0.68663900  1
  Ta  Ta1  1  0.66666667  0.33333333  0.88663900  1
  Ta  Ta1  1  0.66666667  0.53333333  0.08663900  1
  Ta  Ta1  1  0.66666667  0.53333333  0.28663900  1
  Ta  Ta1  1  0.66666667  0.53333333  0.48663900  1
  Ta  Ta1  1  0.66666667  0.53333333  0.68663900  1
  Ta  Ta1  1  0.66666667  0.53333333  0.88663900  1
  Ta  Ta1  1  0.66666667  0.73333333  0.08663900  1
  Ta  Ta1  1  0.66666667  0.73333333  0.28663900  1
  Ta  Ta1  1  0.66666667  0.73333333  0.48663900  1
  Ta  Ta1  1  0.66666667  0.73333333  0.68663900  1
  Ta  Ta1  1  0.66666667  0.73333333  0.88663900  1
  Ta  Ta1  1  0.66666667  0.93333333  0.08663900  1
  Ta  Ta1  1  0.66666667  0.93333333  0.28663900  1
  Ta  Ta1  1  0.66666667  0.93333333  0.48663900  1
  Ta  Ta1  1  0.66666667  0.93333333  0.68663900  1
  Ta  Ta1  1  0.66666667  0.93333333  0.88663900  1
  Ta  Ta1  1  0.86666667  0.13333333  0.08663900  1
  Ta  Ta1  1  0.86666667  0.13333333  0.28663900  1
  Ta  Ta1  1  0.86666667  0.13333333  0.48663900  1
  Ta  Ta1  1  0.86666667  0.13333333  0.68663900  1
  Ta  Ta1  1  0.86666667  0.13333333  0.88663900  1
  Ta  Ta1  1  0.86666667  0.33333333  0.08663900  1
  Ta  Ta1  1  0.86666667  0.33333333  0.28663900  1
  Ta  Ta1  1  0.86666667  0.33333333  0.48663900  1
  Ta  Ta1  1  0.86666667  0.33333333  0.68663900  1
  Ta  Ta1  1  0.86666667  0.33333333  0.88663900  1
  Ta  Ta1  1  0.86666667  0.53333333  0.08663900  1
  Ta  Ta1  1  0.86666667  0.53333333  0.28663900  1
  Ta  Ta1  1  0.86666667  0.53333333  0.48663900  1
  Ta  Ta1  1  0.86666667  0.53333333  0.68663900  1
  Ta  Ta1  1  0.86666667  0.53333333  0.88663900  1
  Ta  Ta1  1  0.86666667  0.73333333  0.08663900  1
  Ta  Ta1  1  0.86666667  0.73333333  0.28663900  1
  Ta  Ta1  1  0.86666667  0.73333333  0.48663900  1
  Ta  Ta1  1  0.86666667  0.73333333  0.68663900  1
  Ta  Ta1  1  0.86666667  0.73333333  0.88663900  1
  Ta  Ta1  1  0.86666667  0.93333333  0.08663900  1
  Ta  Ta1  1  0.86666667  0.93333333  0.28663900  1
  Ta  Ta1  1  0.86666667  0.93333333  0.48663900  1
  Ta  Ta1  1  0.86666667  0.93333333  0.68663900  1
  Ta  Ta1  1  0.86666667  0.93333333  0.88663900  1
  Co  Co1  1  0.00000000  0.00000000  0.00000000  1
  Co  Co1  1  0.00000000  0.00000000  0.20000000  1
  Co  Co1  1  0.00000000  0.00000000  0.40000000  1
  Co  Co1  1  0.00000000  0.00000000  0.60000000  1
  Co  Co1  1  0.00000000  0.00000000  0.80000000  1
  Co  Co1  1  0.00000000  0.20000000  0.00000000  1
  Co  Co1  1  0.00000000  0.20000000  0.20000000  1
  Co  Co1  1  0.00000000  0.20000000  0.40000000  1
  Co  Co1  1  0.00000000  0.20000000  0.60000000  1
  Co  Co1  1  0.00000000  0.20000000  0.80000000  1
  Co  Co1  1  0.00000000  0.40000000  0.00000000  1
  Co  Co1  1  0.00000000  0.40000000  0.20000000  1
  Co  Co1  1  0.00000000  0.40000000  0.40000000  1
  Co  Co1  1  0.00000000  0.40000000  0.60000000  1
  Co  Co1  1  0.00000000  0.40000000  0.80000000  1
  Co  Co1  1  0.00000000  0.60000000  0.00000000  1
  Co  Co1  1  0.00000000  0.60000000  0.20000000  1
  Co  Co1  1  0.00000000  0.60000000  0.40000000  1
  Co  Co1  1  0.00000000  0.60000000  0.60000000  1
  Co  Co1  1  0.00000000  0.60000000  0.80000000  1
  Co  Co1  1  0.00000000  0.80000000  0.00000000  1
  Co  Co1  1  0.00000000  0.80000000  0.20000000  1
  Co  Co1  1  0.00000000  0.80000000  0.40000000  1
  Co  Co1  1  0.00000000  0.80000000  0.60000000  1
  Co  Co1  1  0.00000000  0.80000000  0.80000000  1
  Co  Co1  1  0.20000000  0.00000000  0.00000000  1
  Co  Co1  1  0.20000000  0.00000000  0.20000000  1
  Co  Co1  1  0.20000000  0.00000000  0.40000000  1
  Co  Co1  1  0.20000000  0.00000000  0.60000000  1
  Co  Co1  1  0.20000000  0.00000000  0.80000000  1
  Co  Co1  1  0.20000000  0.20000000  0.00000000  1
  Co  Co1  1  0.20000000  0.20000000  0.20000000  1
  Co  Co1  1  0.20000000  0.20000000  0.40000000  1
  Co  Co1  1  0.20000000  0.20000000  0.60000000  1
  Co  Co1  1  0.20000000  0.20000000  0.80000000  1
  Co  Co1  1  0.20000000  0.40000000  0.00000000  1
  Co  Co1  1  0.20000000  0.40000000  0.20000000  1
  Co  Co1  1  0.20000000  0.40000000  0.40000000  1
  Co  Co1  1  0.20000000  0.40000000  0.60000000  1
  Co  Co1  1  0.20000000  0.40000000  0.80000000  1
  Co  Co1  1  0.20000000  0.60000000  0.00000000  1
  Co  Co1  1  0.20000000  0.60000000  0.20000000  1
  Co  Co1  1  0.20000000  0.60000000  0.40000000  1
  Co  Co1  1  0.20000000  0.60000000  0.60000000  1
  Co  Co1  1  0.20000000  0.60000000  0.80000000  1
  Co  Co1  1  0.20000000  0.80000000  0.00000000  1
  Co  Co1  1  0.20000000  0.80000000  0.20000000  1
  Co  Co1  1  0.20000000  0.80000000  0.40000000  1
  Co  Co1  1  0.20000000  0.80000000  0.60000000  1
  Co  Co1  1  0.20000000  0.80000000  0.80000000  1
  Co  Co1  1  0.40000000  0.00000000  0.00000000  1
  Co  Co1  1  0.40000000  0.00000000  0.20000000  1
  Co  Co1  1  0.40000000  0.00000000  0.40000000  1
  Co  Co1  1  0.40000000  0.00000000  0.60000000  1
  Co  Co1  1  0.40000000  0.00000000  0.80000000  1
  Co  Co1  1  0.40000000  0.20000000  0.00000000  1
  Co  Co1  1  0.40000000  0.20000000  0.20000000  1
  Co  Co1  1  0.40000000  0.20000000  0.40000000  1
  Co  Co1  1  0.40000000  0.20000000  0.60000000  1
  Co  Co1  1  0.40000000  0.20000000  0.80000000  1
  Co  Co1  1  0.40000000  0.40000000  0.00000000  1
  Co  Co1  1  0.40000000  0.40000000  0.20000000  1
  Co  Co1  1  0.40000000  0.40000000  0.40000000  1
  Co  Co1  1  0.40000000  0.40000000  0.60000000  1
  Co  Co1  1  0.40000000  0.40000000  0.80000000  1
  Co  Co1  1  0.40000000  0.60000000  0.00000000  1
  Co  Co1  1  0.40000000  0.60000000  0.20000000  1
  Co  Co1  1  0.40000000  0.60000000  0.40000000  1
  Co  Co1  1  0.40000000  0.60000000  0.60000000  1
  Co  Co1  1  0.40000000  0.60000000  0.80000000  1
  Co  Co1  1  0.40000000  0.80000000  0.00000000  1
  Co  Co1  1  0.40000000  0.80000000  0.20000000  1
  Co  Co1  1  0.40000000  0.80000000  0.40000000  1
  Co  Co1  1  0.40000000  0.80000000  0.60000000  1
  Co  Co1  1  0.40000000  0.80000000  0.80000000  1
  Co  Co1  1  0.60000000  0.00000000  0.00000000  1
  Co  Co1  1  0.60000000  0.00000000  0.20000000  1
  Co  Co1  1  0.60000000  0.00000000  0.40000000  1
  Co  Co1  1  0.60000000  0.00000000  0.60000000  1
  Co  Co1  1  0.60000000  0.00000000  0.80000000  1
  Co  Co1  1  0.60000000  0.20000000  0.00000000  1
  Co  Co1  1  0.60000000  0.20000000  0.20000000  1
  Co  Co1  1  0.60000000  0.20000000  0.40000000  1
  Co  Co1  1  0.60000000  0.20000000  0.60000000  1
  Co  Co1  1  0.60000000  0.20000000  0.80000000  1
  Co  Co1  1  0.60000000  0.40000000  0.00000000  1
  Co  Co1  1  0.60000000  0.40000000  0.20000000  1
  Co  Co1  1  0.60000000  0.40000000  0.40000000  1
  Co  Co1  1  0.60000000  0.40000000  0.60000000  1
  Co  Co1  1  0.60000000  0.40000000  0.80000000  1
  Co  Co1  1  0.60000000  0.60000000  0.00000000  1
  Co  Co1  1  0.60000000  0.60000000  0.20000000  1
  Co  Co1  1  0.60000000  0.60000000  0.40000000  1
  Co  Co1  1  0.60000000  0.60000000  0.60000000  1
  Co  Co1  1  0.60000000  0.60000000  0.80000000  1
  Co  Co1  1  0.60000000  0.80000000  0.00000000  1
  Co  Co1  1  0.60000000  0.80000000  0.20000000  1
  Co  Co1  1  0.60000000  0.80000000  0.40000000  1
  Co  Co1  1  0.60000000  0.80000000  0.60000000  1
  Co  Co1  1  0.60000000  0.80000000  0.80000000  1
  Co  Co1  1  0.80000000  0.00000000  0.00000000  1
  Co  Co1  1  0.80000000  0.00000000  0.20000000  1
  Co  Co1  1  0.80000000  0.00000000  0.40000000  1
  Co  Co1  1  0.80000000  0.00000000  0.60000000  1
  Co  Co1  1  0.80000000  0.00000000  0.80000000  1
  Co  Co1  1  0.80000000  0.20000000  0.00000000  1
  Co  Co1  1  0.80000000  0.20000000  0.20000000  1
  Co  Co1  1  0.80000000  0.20000000  0.40000000  1
  Co  Co1  1  0.80000000  0.20000000  0.60000000  1
  Co  Co1  1  0.80000000  0.20000000  0.80000000  1
  Co  Co1  1  0.80000000  0.40000000  0.00000000  1
  Co  Co1  1  0.80000000  0.40000000  0.20000000  1
  Co  Co1  1  0.80000000  0.40000000  0.40000000  1
  Co  Co1  1  0.80000000  0.40000000  0.60000000  1
  Co  Co1  1  0.80000000  0.40000000  0.80000000  1
  Co  Co1  1  0.80000000  0.60000000  0.00000000  1
  Co  Co1  1  0.80000000  0.60000000  0.20000000  1
  Co  Co1  1  0.80000000  0.60000000  0.40000000  1
  Co  Co1  1  0.80000000  0.60000000  0.60000000  1
  Co  Co1  1  0.80000000  0.60000000  0.80000000  1
  Co  Co1  1  0.80000000  0.80000000  0.00000000  1
  Co  Co1  1  0.80000000  0.80000000  0.20000000  1
  Co  Co1  1  0.80000000  0.80000000  0.40000000  1
  Co  Co1  1  0.80000000  0.80000000  0.60000000  1
  Co  Co1  1  0.80000000  0.80000000  0.80000000  1
  Co  Co1  1  0.00000000  0.00000000  0.10000000  1
  Co  Co1  1  0.00000000  0.00000000  0.30000000  1
  Co  Co1  1  0.00000000  0.00000000  0.50000000  1
  Co  Co1  1  0.00000000  0.00000000  0.70000000  1
  Co  Co1  1  0.00000000  0.00000000  0.90000000  1
  Co  Co1  1  0.00000000  0.20000000  0.10000000  1
  Co  Co1  1  0.00000000  0.20000000  0.30000000  1
  Co  Co1  1  0.00000000  0.20000000  0.50000000  1
  Co  Co1  1  0.00000000  0.20000000  0.70000000  1
  Co  Co1  1  0.00000000  0.20000000  0.90000000  1
  Co  Co1  1  0.00000000  0.40000000  0.10000000  1
  Co  Co1  1  0.00000000  0.40000000  0.30000000  1
  Co  Co1  1  0.00000000  0.40000000  0.50000000  1
  Co  Co1  1  0.00000000  0.40000000  0.70000000  1
  Co  Co1  1  0.00000000  0.40000000  0.90000000  1
  Co  Co1  1  0.00000000  0.60000000  0.10000000  1
  Co  Co1  1  0.00000000  0.60000000  0.30000000  1
  Co  Co1  1  0.00000000  0.60000000  0.50000000  1
  Co  Co1  1  0.00000000  0.60000000  0.70000000  1
  Co  Co1  1  0.00000000  0.60000000  0.90000000  1
  Co  Co1  1  0.00000000  0.80000000  0.10000000  1
  Co  Co1  1  0.00000000  0.80000000  0.30000000  1
  Co  Co1  1  0.00000000  0.80000000  0.50000000  1
  Co  Co1  1  0.00000000  0.80000000  0.70000000  1
  Co  Co1  1  0.00000000  0.80000000  0.90000000  1
  Co  Co1  1  0.20000000  0.00000000  0.10000000  1
  Co  Co1  1  0.20000000  0.00000000  0.30000000  1
  Co  Co1  1  0.20000000  0.00000000  0.50000000  1
  Co  Co1  1  0.20000000  0.00000000  0.70000000  1
  Co  Co1  1  0.20000000  0.00000000  0.90000000  1
  Co  Co1  1  0.20000000  0.20000000  0.10000000  1
  Co  Co1  1  0.20000000  0.20000000  0.30000000  1
  Co  Co1  1  0.20000000  0.20000000  0.50000000  1
  Co  Co1  1  0.20000000  0.20000000  0.70000000  1
  Co  Co1  1  0.20000000  0.20000000  0.90000000  1
  Co  Co1  1  0.20000000  0.40000000  0.10000000  1
  Co  Co1  1  0.20000000  0.40000000  0.30000000  1
  Co  Co1  1  0.20000000  0.40000000  0.50000000  1
  Co  Co1  1  0.20000000  0.40000000  0.70000000  1
  Co  Co1  1  0.20000000  0.40000000  0.90000000  1
  Co  Co1  1  0.20000000  0.60000000  0.10000000  1
  Co  Co1  1  0.20000000  0.60000000  0.30000000  1
  Co  Co1  1  0.20000000  0.60000000  0.50000000  1
  Co  Co1  1  0.20000000  0.60000000  0.70000000  1
  Co  Co1  1  0.20000000  0.60000000  0.90000000  1
  Co  Co1  1  0.20000000  0.80000000  0.10000000  1
  Co  Co1  1  0.20000000  0.80000000  0.30000000  1
  Co  Co1  1  0.20000000  0.80000000  0.50000000  1
  Co  Co1  1  0.20000000  0.80000000  0.70000000  1
  Co  Co1  1  0.20000000  0.80000000  0.90000000  1
  Co  Co1  1  0.40000000  0.00000000  0.10000000  1
  Co  Co1  1  0.40000000  0.00000000  0.30000000  1
  Co  Co1  1  0.40000000  0.00000000  0.50000000  1
  Co  Co1  1  0.40000000  0.00000000  0.70000000  1
  Co  Co1  1  0.40000000  0.00000000  0.90000000  1
  Co  Co1  1  0.40000000  0.20000000  0.10000000  1
  Co  Co1  1  0.40000000  0.20000000  0.30000000  1
  Co  Co1  1  0.40000000  0.20000000  0.50000000  1
  Co  Co1  1  0.40000000  0.20000000  0.70000000  1
  Co  Co1  1  0.40000000  0.20000000  0.90000000  1
  Co  Co1  1  0.40000000  0.40000000  0.10000000  1
  Co  Co1  1  0.40000000  0.40000000  0.30000000  1
  Co  Co1  1  0.40000000  0.40000000  0.50000000  1
  Co  Co1  1  0.40000000  0.40000000  0.70000000  1
  Co  Co1  1  0.40000000  0.40000000  0.90000000  1
  Co  Co1  1  0.40000000  0.60000000  0.10000000  1
  Co  Co1  1  0.40000000  0.60000000  0.30000000  1
  Co  Co1  1  0.40000000  0.60000000  0.50000000  1
  Co  Co1  1  0.40000000  0.60000000  0.70000000  1
  Co  Co1  1  0.40000000  0.60000000  0.90000000  1
  Co  Co1  1  0.40000000  0.80000000  0.10000000  1
  Co  Co1  1  0.40000000  0.80000000  0.30000000  1
  Co  Co1  1  0.40000000  0.80000000  0.50000000  1
  Co  Co1  1  0.40000000  0.80000000  0.70000000  1
  Co  Co1  1  0.40000000  0.80000000  0.90000000  1
  Co  Co1  1  0.60000000  0.00000000  0.10000000  1
  Co  Co1  1  0.60000000  0.00000000  0.30000000  1
  Co  Co1  1  0.60000000  0.00000000  0.50000000  1
  Co  Co1  1  0.60000000  0.00000000  0.70000000  1
  Co  Co1  1  0.60000000  0.00000000  0.90000000  1
  Co  Co1  1  0.60000000  0.20000000  0.10000000  1
  Co  Co1  1  0.60000000  0.20000000  0.30000000  1
  Co  Co1  1  0.60000000  0.20000000  0.50000000  1
  Co  Co1  1  0.60000000  0.20000000  0.70000000  1
  Co  Co1  1  0.60000000  0.20000000  0.90000000  1
  Co  Co1  1  0.60000000  0.40000000  0.10000000  1
  Co  Co1  1  0.60000000  0.40000000  0.30000000  1
  Co  Co1  1  0.60000000  0.40000000  0.50000000  1
  Co  Co1  1  0.60000000  0.40000000  0.70000000  1
  Co  Co1  1  0.60000000  0.40000000  0.90000000  1
  Co  Co1  1  0.60000000  0.60000000  0.10000000  1
  Co  Co1  1  0.60000000  0.60000000  0.30000000  1
  Co  Co1  1  0.60000000  0.60000000  0.50000000  1
  Co  Co1  1  0.60000000  0.60000000  0.70000000  1
  Co  Co1  1  0.60000000  0.60000000  0.90000000  1
  Co  Co1  1  0.60000000  0.80000000  0.10000000  1
  Co  Co1  1  0.60000000  0.80000000  0.30000000  1
  Co  Co1  1  0.60000000  0.80000000  0.50000000  1
  Co  Co1  1  0.60000000  0.80000000  0.70000000  1
  Co  Co1  1  0.60000000  0.80000000  0.90000000  1
  Co  Co1  1  0.80000000  0.00000000  0.10000000  1
  Co  Co1  1  0.80000000  0.00000000  0.30000000  1
  Co  Co1  1  0.80000000  0.00000000  0.50000000  1
  Co  Co1  1  0.80000000  0.00000000  0.70000000  1
  Co  Co1  1  0.80000000  0.00000000  0.90000000  1
  Co  Co1  1  0.80000000  0.20000000  0.10000000  1
  Co  Co1  1  0.80000000  0.20000000  0.30000000  1
  Co  Co1  1  0.80000000  0.20000000  0.50000000  1
  Co  Co1  1  0.80000000  0.20000000  0.70000000  1
  Co  Co1  1  0.80000000  0.20000000  0.90000000  1
  Co  Co1  1  0.80000000  0.40000000  0.10000000  1
  Co  Co1  1  0.80000000  0.40000000  0.30000000  1
  Co  Co1  1  0.80000000  0.40000000  0.50000000  1
  Co  Co1  1  0.80000000  0.40000000  0.70000000  1
  Co  Co1  1  0.80000000  0.40000000  0.90000000  1
  Co  Co1  1  0.80000000  0.60000000  0.10000000  1
  Co  Co1  1  0.80000000  0.60000000  0.30000000  1
  Co  Co1  1  0.80000000  0.60000000  0.50000000  1
  Co  Co1  1  0.80000000  0.60000000  0.70000000  1
  Co  Co1  1  0.80000000  0.60000000  0.90000000  1
  Co  Co1  1  0.80000000  0.80000000  0.10000000  1
  Co  Co1  1  0.80000000  0.80000000  0.30000000  1
  Co  Co1  1  0.80000000  0.80000000  0.50000000  1
  Co  Co1  1  0.80000000  0.80000000  0.70000000  1
  Co  Co1  1  0.80000000  0.80000000  0.90000000  1
  Co  Co2  1  0.06795360  0.03397680  0.05000000  1
  Co  Co2  1  0.06795360  0.03397680  0.25000000  1
  Co  Co2  1  0.06795360  0.03397680  0.45000000  1
  Co  Co2  1  0.06795360  0.03397680  0.65000000  1
  Co  Co2  1  0.06795360  0.03397680  0.85000000  1
  Co  Co2  1  0.06795360  0.23397680  0.05000000  1
  Co  Co2  1  0.06795360  0.23397680  0.25000000  1
  Co  Co2  1  0.06795360  0.23397680  0.45000000  1
  Co  Co2  1  0.06795360  0.23397680  0.65000000  1
  Co  Co2  1  0.06795360  0.23397680  0.85000000  1
  Co  Co2  1  0.06795360  0.43397680  0.05000000  1
  Co  Co2  1  0.06795360  0.43397680  0.25000000  1
  Co  Co2  1  0.06795360  0.43397680  0.45000000  1
  Co  Co2  1  0.06795360  0.43397680  0.65000000  1
  Co  Co2  1  0.06795360  0.43397680  0.85000000  1
  Co  Co2  1  0.06795360  0.63397680  0.05000000  1
  Co  Co2  1  0.06795360  0.63397680  0.25000000  1
  Co  Co2  1  0.06795360  0.63397680  0.45000000  1
  Co  Co2  1  0.06795360  0.63397680  0.65000000  1
  Co  Co2  1  0.06795360  0.63397680  0.85000000  1
  Co  Co2  1  0.06795360  0.83397680  0.05000000  1
  Co  Co2  1  0.06795360  0.83397680  0.25000000  1
  Co  Co2  1  0.06795360  0.83397680  0.45000000  1
  Co  Co2  1  0.06795360  0.83397680  0.65000000  1
  Co  Co2  1  0.06795360  0.83397680  0.85000000  1
  Co  Co2  1  0.26795360  0.03397680  0.05000000  1
  Co  Co2  1  0.26795360  0.03397680  0.25000000  1
  Co  Co2  1  0.26795360  0.03397680  0.45000000  1
  Co  Co2  1  0.26795360  0.03397680  0.65000000  1
  Co  Co2  1  0.26795360  0.03397680  0.85000000  1
  Co  Co2  1  0.26795360  0.23397680  0.05000000  1
  Co  Co2  1  0.26795360  0.23397680  0.25000000  1
  Co  Co2  1  0.26795360  0.23397680  0.45000000  1
  Co  Co2  1  0.26795360  0.23397680  0.65000000  1
  Co  Co2  1  0.26795360  0.23397680  0.85000000  1
  Co  Co2  1  0.26795360  0.43397680  0.05000000  1
  Co  Co2  1  0.26795360  0.43397680  0.25000000  1
  Co  Co2  1  0.26795360  0.43397680  0.45000000  1
  Co  Co2  1  0.26795360  0.43397680  0.65000000  1
  Co  Co2  1  0.26795360  0.43397680  0.85000000  1
  Co  Co2  1  0.26795360  0.63397680  0.05000000  1
  Co  Co2  1  0.26795360  0.63397680  0.25000000  1
  Co  Co2  1  0.26795360  0.63397680  0.45000000  1
  Co  Co2  1  0.26795360  0.63397680  0.65000000  1
  Co  Co2  1  0.26795360  0.63397680  0.85000000  1
  Co  Co2  1  0.26795360  0.83397680  0.05000000  1
  Co  Co2  1  0.26795360  0.83397680  0.25000000  1
  Co  Co2  1  0.26795360  0.83397680  0.45000000  1
  Co  Co2  1  0.26795360  0.83397680  0.65000000  1
  Co  Co2  1  0.26795360  0.83397680  0.85000000  1
  Co  Co2  1  0.46795360  0.03397680  0.05000000  1
  Co  Co2  1  0.46795360  0.03397680  0.25000000  1
  Co  Co2  1  0.46795360  0.03397680  0.45000000  1
  Co  Co2  1  0.46795360  0.03397680  0.65000000  1
  Co  Co2  1  0.46795360  0.03397680  0.85000000  1
  Co  Co2  1  0.46795360  0.23397680  0.05000000  1
  Co  Co2  1  0.46795360  0.23397680  0.25000000  1
  Co  Co2  1  0.46795360  0.23397680  0.45000000  1
  Co  Co2  1  0.46795360  0.23397680  0.65000000  1
  Co  Co2  1  0.46795360  0.23397680  0.85000000  1
  Co  Co2  1  0.46795360  0.43397680  0.05000000  1
  Co  Co2  1  0.46795360  0.43397680  0.25000000  1
  Co  Co2  1  0.46795360  0.43397680  0.45000000  1
  Co  Co2  1  0.46795360  0.43397680  0.65000000  1
  Co  Co2  1  0.46795360  0.43397680  0.85000000  1
  Co  Co2  1  0.46795360  0.63397680  0.05000000  1
  Co  Co2  1  0.46795360  0.63397680  0.25000000  1
  Co  Co2  1  0.46795360  0.63397680  0.45000000  1
  Co  Co2  1  0.46795360  0.63397680  0.65000000  1
  Co  Co2  1  0.46795360  0.63397680  0.85000000  1
  Co  Co2  1  0.46795360  0.83397680  0.05000000  1
  Co  Co2  1  0.46795360  0.83397680  0.25000000  1
  Co  Co2  1  0.46795360  0.83397680  0.45000000  1
  Co  Co2  1  0.46795360  0.83397680  0.65000000  1
  Co  Co2  1  0.46795360  0.83397680  0.85000000  1
  Co  Co2  1  0.66795360  0.03397680  0.05000000  1
  Co  Co2  1  0.66795360  0.03397680  0.25000000  1
  Co  Co2  1  0.66795360  0.03397680  0.45000000  1
  Co  Co2  1  0.66795360  0.03397680  0.65000000  1
  Co  Co2  1  0.66795360  0.03397680  0.85000000  1
  Co  Co2  1  0.66795360  0.23397680  0.05000000  1
  Co  Co2  1  0.66795360  0.23397680  0.25000000  1
  Co  Co2  1  0.66795360  0.23397680  0.45000000  1
  Co  Co2  1  0.66795360  0.23397680  0.65000000  1
  Co  Co2  1  0.66795360  0.23397680  0.85000000  1
  Co  Co2  1  0.66795360  0.43397680  0.05000000  1
  Co  Co2  1  0.66795360  0.43397680  0.25000000  1
  Co  Co2  1  0.66795360  0.43397680  0.45000000  1
  Co  Co2  1  0.66795360  0.43397680  0.65000000  1
  Co  Co2  1  0.66795360  0.43397680  0.85000000  1
  Co  Co2  1  0.66795360  0.63397680  0.05000000  1
  Co  Co2  1  0.66795360  0.63397680  0.25000000  1
  Co  Co2  1  0.66795360  0.63397680  0.45000000  1
  Co  Co2  1  0.66795360  0.63397680  0.65000000  1
  Co  Co2  1  0.66795360  0.63397680  0.85000000  1
  Co  Co2  1  0.66795360  0.83397680  0.05000000  1
  Co  Co2  1  0.66795360  0.83397680  0.25000000  1
  Co  Co2  1  0.66795360  0.83397680  0.45000000  1
  Co  Co2  1  0.66795360  0.83397680  0.65000000  1
  Co  Co2  1  0.66795360  0.83397680  0.85000000  1
  Co  Co2  1  0.86795360  0.03397680  0.05000000  1
  Co  Co2  1  0.86795360  0.03397680  0.25000000  1
  Co  Co2  1  0.86795360  0.03397680  0.45000000  1
  Co  Co2  1  0.86795360  0.03397680  0.65000000  1
  Co  Co2  1  0.86795360  0.03397680  0.85000000  1
  Co  Co2  1  0.86795360  0.23397680  0.05000000  1
  Co  Co2  1  0.86795360  0.23397680  0.25000000  1
  Co  Co2  1  0.86795360  0.23397680  0.45000000  1
  Co  Co2  1  0.86795360  0.23397680  0.65000000  1
  Co  Co2  1  0.86795360  0.23397680  0.85000000  1
  Co  Co2  1  0.86795360  0.43397680  0.05000000  1
  Co  Co2  1  0.86795360  0.43397680  0.25000000  1
  Co  Co2  1  0.86795360  0.43397680  0.45000000  1
  Co  Co2  1  0.86795360  0.43397680  0.65000000  1
  Co  Co2  1  0.86795360  0.43397680  0.85000000  1
  Co  Co2  1  0.86795360  0.63397680  0.05000000  1
  Co  Co2  1  0.86795360  0.63397680  0.25000000  1
  Co  Co2  1  0.86795360  0.63397680  0.45000000  1
  Co  Co2  1  0.86795360  0.63397680  0.65000000  1
  Co  Co2  1  0.86795360  0.63397680  0.85000000  1
  Co  Co2  1  0.86795360  0.83397680  0.05000000  1
  Co  Co2  1  0.86795360  0.83397680  0.25000000  1
  Co  Co2  1  0.86795360  0.83397680  0.45000000  1
  Co  Co2  1  0.86795360  0.83397680  0.65000000  1
  Co  Co2  1  0.86795360  0.83397680  0.85000000  1
  Co  Co2  1  0.13204640  0.16602320  0.15000000  1
  Co  Co2  1  0.13204640  0.16602320  0.35000000  1
  Co  Co2  1  0.13204640  0.16602320  0.55000000  1
  Co  Co2  1  0.13204640  0.16602320  0.75000000  1
  Co  Co2  1  0.13204640  0.16602320  0.95000000  1
  Co  Co2  1  0.13204640  0.36602320  0.15000000  1
  Co  Co2  1  0.13204640  0.36602320  0.35000000  1
  Co  Co2  1  0.13204640  0.36602320  0.55000000  1
  Co  Co2  1  0.13204640  0.36602320  0.75000000  1
  Co  Co2  1  0.13204640  0.36602320  0.95000000  1
  Co  Co2  1  0.13204640  0.56602320  0.15000000  1
  Co  Co2  1  0.13204640  0.56602320  0.35000000  1
  Co  Co2  1  0.13204640  0.56602320  0.55000000  1
  Co  Co2  1  0.13204640  0.56602320  0.75000000  1
  Co  Co2  1  0.13204640  0.56602320  0.95000000  1
  Co  Co2  1  0.13204640  0.76602320  0.15000000  1
  Co  Co2  1  0.13204640  0.76602320  0.35000000  1
  Co  Co2  1  0.13204640  0.76602320  0.55000000  1
  Co  Co2  1  0.13204640  0.76602320  0.75000000  1
  Co  Co2  1  0.13204640  0.76602320  0.95000000  1
  Co  Co2  1  0.13204640  0.96602320  0.15000000  1
  Co  Co2  1  0.13204640  0.96602320  0.35000000  1
  Co  Co2  1  0.13204640  0.96602320  0.55000000  1
  Co  Co2  1  0.13204640  0.96602320  0.75000000  1
  Co  Co2  1  0.13204640  0.96602320  0.95000000  1
  Co  Co2  1  0.33204640  0.16602320  0.15000000  1
  Co  Co2  1  0.33204640  0.16602320  0.35000000  1
  Co  Co2  1  0.33204640  0.16602320  0.55000000  1
  Co  Co2  1  0.33204640  0.16602320  0.75000000  1
  Co  Co2  1  0.33204640  0.16602320  0.95000000  1
  Co  Co2  1  0.33204640  0.36602320  0.15000000  1
  Co  Co2  1  0.33204640  0.36602320  0.35000000  1
  Co  Co2  1  0.33204640  0.36602320  0.55000000  1
  Co  Co2  1  0.33204640  0.36602320  0.75000000  1
  Co  Co2  1  0.33204640  0.36602320  0.95000000  1
  Co  Co2  1  0.33204640  0.56602320  0.15000000  1
  Co  Co2  1  0.33204640  0.56602320  0.35000000  1
  Co  Co2  1  0.33204640  0.56602320  0.55000000  1
  Co  Co2  1  0.33204640  0.56602320  0.75000000  1
  Co  Co2  1  0.33204640  0.56602320  0.95000000  1
  Co  Co2  1  0.33204640  0.76602320  0.15000000  1
  Co  Co2  1  0.33204640  0.76602320  0.35000000  1
  Co  Co2  1  0.33204640  0.76602320  0.55000000  1
  Co  Co2  1  0.33204640  0.76602320  0.75000000  1
  Co  Co2  1  0.33204640  0.76602320  0.95000000  1
  Co  Co2  1  0.33204640  0.96602320  0.15000000  1
  Co  Co2  1  0.33204640  0.96602320  0.35000000  1
  Co  Co2  1  0.33204640  0.96602320  0.55000000  1
  Co  Co2  1  0.33204640  0.96602320  0.75000000  1
  Co  Co2  1  0.33204640  0.96602320  0.95000000  1
  Co  Co2  1  0.53204640  0.16602320  0.15000000  1
  Co  Co2  1  0.53204640  0.16602320  0.35000000  1
  Co  Co2  1  0.53204640  0.16602320  0.55000000  1
  Co  Co2  1  0.53204640  0.16602320  0.75000000  1
  Co  Co2  1  0.53204640  0.16602320  0.95000000  1
  Co  Co2  1  0.53204640  0.36602320  0.15000000  1
  Co  Co2  1  0.53204640  0.36602320  0.35000000  1
  Co  Co2  1  0.53204640  0.36602320  0.55000000  1
  Co  Co2  1  0.53204640  0.36602320  0.75000000  1
  Co  Co2  1  0.53204640  0.36602320  0.95000000  1
  Co  Co2  1  0.53204640  0.56602320  0.15000000  1
  Co  Co2  1  0.53204640  0.56602320  0.35000000  1
  Co  Co2  1  0.53204640  0.56602320  0.55000000  1
  Co  Co2  1  0.53204640  0.56602320  0.75000000  1
  Co  Co2  1  0.53204640  0.56602320  0.95000000  1
  Co  Co2  1  0.53204640  0.76602320  0.15000000  1
  Co  Co2  1  0.53204640  0.76602320  0.35000000  1
  Co  Co2  1  0.53204640  0.76602320  0.55000000  1
  Co  Co2  1  0.53204640  0.76602320  0.75000000  1
  Co  Co2  1  0.53204640  0.76602320  0.95000000  1
  Co  Co2  1  0.53204640  0.96602320  0.15000000  1
  Co  Co2  1  0.53204640  0.96602320  0.35000000  1
  Co  Co2  1  0.53204640  0.96602320  0.55000000  1
  Co  Co2  1  0.53204640  0.96602320  0.75000000  1
  Co  Co2  1  0.53204640  0.96602320  0.95000000  1
  Co  Co2  1  0.73204640  0.16602320  0.15000000  1
  Co  Co2  1  0.73204640  0.16602320  0.35000000  1
  Co  Co2  1  0.73204640  0.16602320  0.55000000  1
  Co  Co2  1  0.73204640  0.16602320  0.75000000  1
  Co  Co2  1  0.73204640  0.16602320  0.95000000  1
  Co  Co2  1  0.73204640  0.36602320  0.15000000  1
  Co  Co2  1  0.73204640  0.36602320  0.35000000  1
  Co  Co2  1  0.73204640  0.36602320  0.55000000  1
  Co  Co2  1  0.73204640  0.36602320  0.75000000  1
  Co  Co2  1  0.73204640  0.36602320  0.95000000  1
  Co  Co2  1  0.73204640  0.56602320  0.15000000  1
  Co  Co2  1  0.73204640  0.56602320  0.35000000  1
  Co  Co2  1  0.73204640  0.56602320  0.55000000  1
  Co  Co2  1  0.73204640  0.56602320  0.75000000  1
  Co  Co2  1  0.73204640  0.56602320  0.95000000  1
  Co  Co2  1  0.73204640  0.76602320  0.15000000  1
  Co  Co2  1  0.73204640  0.76602320  0.35000000  1
  Co  Co2  1  0.73204640  0.76602320  0.55000000  1
  Co  Co2  1  0.73204640  0.76602320  0.75000000  1
  Co  Co2  1  0.73204640  0.76602320  0.95000000  1
  Co  Co2  1  0.73204640  0.96602320  0.15000000  1
  Co  Co2  1  0.73204640  0.96602320  0.35000000  1
  Co  Co2  1  0.73204640  0.96602320  0.55000000  1
  Co  Co2  1  0.73204640  0.96602320  0.75000000  1
  Co  Co2  1  0.73204640  0.96602320  0.95000000  1
  Co  Co2  1  0.93204640  0.16602320  0.15000000  1
  Co  Co2  1  0.93204640  0.16602320  0.35000000  1
  Co  Co2  1  0.93204640  0.16602320  0.55000000  1
  Co  Co2  1  0.93204640  0.16602320  0.75000000  1
  Co  Co2  1  0.93204640  0.16602320  0.95000000  1
  Co  Co2  1  0.93204640  0.36602320  0.15000000  1
  Co  Co2  1  0.93204640  0.36602320  0.35000000  1
  Co  Co2  1  0.93204640  0.36602320  0.55000000  1
  Co  Co2  1  0.93204640  0.36602320  0.75000000  1
  Co  Co2  1  0.93204640  0.36602320  0.95000000  1
  Co  Co2  1  0.93204640  0.56602320  0.15000000  1
  Co  Co2  1  0.93204640  0.56602320  0.35000000  1
  Co  Co2  1  0.93204640  0.56602320  0.55000000  1
  Co  Co2  1  0.93204640  0.56602320  0.75000000  1
  Co  Co2  1  0.93204640  0.56602320  0.95000000  1
  Co  Co2  1  0.93204640  0.76602320  0.15000000  1
  Co  Co2  1  0.93204640  0.76602320  0.35000000  1
  Co  Co2  1  0.93204640  0.76602320  0.55000000  1
  Co  Co2  1  0.93204640  0.76602320  0.75000000  1
  Co  Co2  1  0.93204640  0.76602320  0.95000000  1
  Co  Co2  1  0.93204640  0.96602320  0.15000000  1
  Co  Co2  1  0.93204640  0.96602320  0.35000000  1
  Co  Co2  1  0.93204640  0.96602320  0.55000000  1
  Co  Co2  1  0.93204640  0.96602320  0.75000000  1
  Co  Co2  1  0.93204640  0.96602320  0.95000000  1
  Co  Co2  1  0.16602320  0.03397680  0.05000000  1
  Co  Co2  1  0.16602320  0.03397680  0.25000000  1
  Co  Co2  1  0.16602320  0.03397680  0.45000000  1
  Co  Co2  1  0.16602320  0.03397680  0.65000000  1
  Co  Co2  1  0.16602320  0.03397680  0.85000000  1
  Co  Co2  1  0.16602320  0.23397680  0.05000000  1
  Co  Co2  1  0.16602320  0.23397680  0.25000000  1
  Co  Co2  1  0.16602320  0.23397680  0.45000000  1
  Co  Co2  1  0.16602320  0.23397680  0.65000000  1
  Co  Co2  1  0.16602320  0.23397680  0.85000000  1
  Co  Co2  1  0.16602320  0.43397680  0.05000000  1
  Co  Co2  1  0.16602320  0.43397680  0.25000000  1
  Co  Co2  1  0.16602320  0.43397680  0.45000000  1
  Co  Co2  1  0.16602320  0.43397680  0.65000000  1
  Co  Co2  1  0.16602320  0.43397680  0.85000000  1
  Co  Co2  1  0.16602320  0.63397680  0.05000000  1
  Co  Co2  1  0.16602320  0.63397680  0.25000000  1
  Co  Co2  1  0.16602320  0.63397680  0.45000000  1
  Co  Co2  1  0.16602320  0.63397680  0.65000000  1
  Co  Co2  1  0.16602320  0.63397680  0.85000000  1
  Co  Co2  1  0.16602320  0.83397680  0.05000000  1
  Co  Co2  1  0.16602320  0.83397680  0.25000000  1
  Co  Co2  1  0.16602320  0.83397680  0.45000000  1
  Co  Co2  1  0.16602320  0.83397680  0.65000000  1
  Co  Co2  1  0.16602320  0.83397680  0.85000000  1
  Co  Co2  1  0.36602320  0.03397680  0.05000000  1
  Co  Co2  1  0.36602320  0.03397680  0.25000000  1
  Co  Co2  1  0.36602320  0.03397680  0.45000000  1
  Co  Co2  1  0.36602320  0.03397680  0.65000000  1
  Co  Co2  1  0.36602320  0.03397680  0.85000000  1
  Co  Co2  1  0.36602320  0.23397680  0.05000000  1
  Co  Co2  1  0.36602320  0.23397680  0.25000000  1
  Co  Co2  1  0.36602320  0.23397680  0.45000000  1
  Co  Co2  1  0.36602320  0.23397680  0.65000000  1
  Co  Co2  1  0.36602320  0.23397680  0.85000000  1
  Co  Co2  1  0.36602320  0.43397680  0.05000000  1
  Co  Co2  1  0.36602320  0.43397680  0.25000000  1
  Co  Co2  1  0.36602320  0.43397680  0.45000000  1
  Co  Co2  1  0.36602320  0.43397680  0.65000000  1
  Co  Co2  1  0.36602320  0.43397680  0.85000000  1
  Co  Co2  1  0.36602320  0.63397680  0.05000000  1
  Co  Co2  1  0.36602320  0.63397680  0.25000000  1
  Co  Co2  1  0.36602320  0.63397680  0.45000000  1
  Co  Co2  1  0.36602320  0.63397680  0.65000000  1
  Co  Co2  1  0.36602320  0.63397680  0.85000000  1
  Co  Co2  1  0.36602320  0.83397680  0.05000000  1
  Co  Co2  1  0.36602320  0.83397680  0.25000000  1
  Co  Co2  1  0.36602320  0.83397680  0.45000000  1
  Co  Co2  1  0.36602320  0.83397680  0.65000000  1
  Co  Co2  1  0.36602320  0.83397680  0.85000000  1
  Co  Co2  1  0.56602320  0.03397680  0.05000000  1
  Co  Co2  1  0.56602320  0.03397680  0.25000000  1
  Co  Co2  1  0.56602320  0.03397680  0.45000000  1
  Co  Co2  1  0.56602320  0.03397680  0.65000000  1
  Co  Co2  1  0.56602320  0.03397680  0.85000000  1
  Co  Co2  1  0.56602320  0.23397680  0.05000000  1
  Co  Co2  1  0.56602320  0.23397680  0.25000000  1
  Co  Co2  1  0.56602320  0.23397680  0.45000000  1
  Co  Co2  1  0.56602320  0.23397680  0.65000000  1
  Co  Co2  1  0.56602320  0.23397680  0.85000000  1
  Co  Co2  1  0.56602320  0.43397680  0.05000000  1
  Co  Co2  1  0.56602320  0.43397680  0.25000000  1
  Co  Co2  1  0.56602320  0.43397680  0.45000000  1
  Co  Co2  1  0.56602320  0.43397680  0.65000000  1
  Co  Co2  1  0.56602320  0.43397680  0.85000000  1
  Co  Co2  1  0.56602320  0.63397680  0.05000000  1
  Co  Co2  1  0.56602320  0.63397680  0.25000000  1
  Co  Co2  1  0.56602320  0.63397680  0.45000000  1
  Co  Co2  1  0.56602320  0.63397680  0.65000000  1
  Co  Co2  1  0.56602320  0.63397680  0.85000000  1
  Co  Co2  1  0.56602320  0.83397680  0.05000000  1
  Co  Co2  1  0.56602320  0.83397680  0.25000000  1
  Co  Co2  1  0.56602320  0.83397680  0.45000000  1
  Co  Co2  1  0.56602320  0.83397680  0.65000000  1
  Co  Co2  1  0.56602320  0.83397680  0.85000000  1
  Co  Co2  1  0.76602320  0.03397680  0.05000000  1
  Co  Co2  1  0.76602320  0.03397680  0.25000000  1
  Co  Co2  1  0.76602320  0.03397680  0.45000000  1
  Co  Co2  1  0.76602320  0.03397680  0.65000000  1
  Co  Co2  1  0.76602320  0.03397680  0.85000000  1
  Co  Co2  1  0.76602320  0.23397680  0.05000000  1
  Co  Co2  1  0.76602320  0.23397680  0.25000000  1
  Co  Co2  1  0.76602320  0.23397680  0.45000000  1
  Co  Co2  1  0.76602320  0.23397680  0.65000000  1
  Co  Co2  1  0.76602320  0.23397680  0.85000000  1
  Co  Co2  1  0.76602320  0.43397680  0.05000000  1
  Co  Co2  1  0.76602320  0.43397680  0.25000000  1
  Co  Co2  1  0.76602320  0.43397680  0.45000000  1
  Co  Co2  1  0.76602320  0.43397680  0.65000000  1
  Co  Co2  1  0.76602320  0.43397680  0.85000000  1
  Co  Co2  1  0.76602320  0.63397680  0.05000000  1
  Co  Co2  1  0.76602320  0.63397680  0.25000000  1
  Co  Co2  1  0.76602320  0.63397680  0.45000000  1
  Co  Co2  1  0.76602320  0.63397680  0.65000000  1
  Co  Co2  1  0.76602320  0.63397680  0.85000000  1
  Co  Co2  1  0.76602320  0.83397680  0.05000000  1
  Co  Co2  1  0.76602320  0.83397680  0.25000000  1
  Co  Co2  1  0.76602320  0.83397680  0.45000000  1
  Co  Co2  1  0.76602320  0.83397680  0.65000000  1
  Co  Co2  1  0.76602320  0.83397680  0.85000000  1
  Co  Co2  1  0.96602320  0.03397680  0.05000000  1
  Co  Co2  1  0.96602320  0.03397680  0.25000000  1
  Co  Co2  1  0.96602320  0.03397680  0.45000000  1
  Co  Co2  1  0.96602320  0.03397680  0.65000000  1
  Co  Co2  1  0.96602320  0.03397680  0.85000000  1
  Co  Co2  1  0.96602320  0.23397680  0.05000000  1
  Co  Co2  1  0.96602320  0.23397680  0.25000000  1
  Co  Co2  1  0.96602320  0.23397680  0.45000000  1
  Co  Co2  1  0.96602320  0.23397680  0.65000000  1
  Co  Co2  1  0.96602320  0.23397680  0.85000000  1
  Co  Co2  1  0.96602320  0.43397680  0.05000000  1
  Co  Co2  1  0.96602320  0.43397680  0.25000000  1
  Co  Co2  1  0.96602320  0.43397680  0.45000000  1
  Co  Co2  1  0.96602320  0.43397680  0.65000000  1
  Co  Co2  1  0.96602320  0.43397680  0.85000000  1
  Co  Co2  1  0.96602320  0.63397680  0.05000000  1
  Co  Co2  1  0.96602320  0.63397680  0.25000000  1
  Co  Co2  1  0.96602320  0.63397680  0.45000000  1
  Co  Co2  1  0.96602320  0.63397680  0.65000000  1
  Co  Co2  1  0.96602320  0.63397680  0.85000000  1
  Co  Co2  1  0.96602320  0.83397680  0.05000000  1
  Co  Co2  1  0.96602320  0.83397680  0.25000000  1
  Co  Co2  1  0.96602320  0.83397680  0.45000000  1
  Co  Co2  1  0.96602320  0.83397680  0.65000000  1
  Co  Co2  1  0.96602320  0.83397680  0.85000000  1
  Co  Co2  1  0.03397680  0.16602320  0.15000000  1
  Co  Co2  1  0.03397680  0.16602320  0.35000000  1
  Co  Co2  1  0.03397680  0.16602320  0.55000000  1
  Co  Co2  1  0.03397680  0.16602320  0.75000000  1
  Co  Co2  1  0.03397680  0.16602320  0.95000000  1
  Co  Co2  1  0.03397680  0.36602320  0.15000000  1
  Co  Co2  1  0.03397680  0.36602320  0.35000000  1
  Co  Co2  1  0.03397680  0.36602320  0.55000000  1
  Co  Co2  1  0.03397680  0.36602320  0.75000000  1
  Co  Co2  1  0.03397680  0.36602320  0.95000000  1
  Co  Co2  1  0.03397680  0.56602320  0.15000000  1
  Co  Co2  1  0.03397680  0.56602320  0.35000000  1
  Co  Co2  1  0.03397680  0.56602320  0.55000000  1
  Co  Co2  1  0.03397680  0.56602320  0.75000000  1
  Co  Co2  1  0.03397680  0.56602320  0.95000000  1
  Co  Co2  1  0.03397680  0.76602320  0.15000000  1
  Co  Co2  1  0.03397680  0.76602320  0.35000000  1
  Co  Co2  1  0.03397680  0.76602320  0.55000000  1
  Co  Co2  1  0.03397680  0.76602320  0.75000000  1
  Co  Co2  1  0.03397680  0.76602320  0.95000000  1
  Co  Co2  1  0.03397680  0.96602320  0.15000000  1
  Co  Co2  1  0.03397680  0.96602320  0.35000000  1
  Co  Co2  1  0.03397680  0.96602320  0.55000000  1
  Co  Co2  1  0.03397680  0.96602320  0.75000000  1
  Co  Co2  1  0.03397680  0.96602320  0.95000000  1
  Co  Co2  1  0.23397680  0.16602320  0.15000000  1
  Co  Co2  1  0.23397680  0.16602320  0.35000000  1
  Co  Co2  1  0.23397680  0.16602320  0.55000000  1
  Co  Co2  1  0.23397680  0.16602320  0.75000000  1
  Co  Co2  1  0.23397680  0.16602320  0.95000000  1
  Co  Co2  1  0.23397680  0.36602320  0.15000000  1
  Co  Co2  1  0.23397680  0.36602320  0.35000000  1
  Co  Co2  1  0.23397680  0.36602320  0.55000000  1
  Co  Co2  1  0.23397680  0.36602320  0.75000000  1
  Co  Co2  1  0.23397680  0.36602320  0.95000000  1
  Co  Co2  1  0.23397680  0.56602320  0.15000000  1
  Co  Co2  1  0.23397680  0.56602320  0.35000000  1
  Co  Co2  1  0.23397680  0.56602320  0.55000000  1
  Co  Co2  1  0.23397680  0.56602320  0.75000000  1
  Co  Co2  1  0.23397680  0.56602320  0.95000000  1
  Co  Co2  1  0.23397680  0.76602320  0.15000000  1
  Co  Co2  1  0.23397680  0.76602320  0.35000000  1
  Co  Co2  1  0.23397680  0.76602320  0.55000000  1
  Co  Co2  1  0.23397680  0.76602320  0.75000000  1
  Co  Co2  1  0.23397680  0.76602320  0.95000000  1
  Co  Co2  1  0.23397680  0.96602320  0.15000000  1
  Co  Co2  1  0.23397680  0.96602320  0.35000000  1
  Co  Co2  1  0.23397680  0.96602320  0.55000000  1
  Co  Co2  1  0.23397680  0.96602320  0.75000000  1
  Co  Co2  1  0.23397680  0.96602320  0.95000000  1
  Co  Co2  1  0.43397680  0.16602320  0.15000000  1
  Co  Co2  1  0.43397680  0.16602320  0.35000000  1
  Co  Co2  1  0.43397680  0.16602320  0.55000000  1
  Co  Co2  1  0.43397680  0.16602320  0.75000000  1
  Co  Co2  1  0.43397680  0.16602320  0.95000000  1
  Co  Co2  1  0.43397680  0.36602320  0.15000000  1
  Co  Co2  1  0.43397680  0.36602320  0.35000000  1
  Co  Co2  1  0.43397680  0.36602320  0.55000000  1
  Co  Co2  1  0.43397680  0.36602320  0.75000000  1
  Co  Co2  1  0.43397680  0.36602320  0.95000000  1
  Co  Co2  1  0.43397680  0.56602320  0.15000000  1
  Co  Co2  1  0.43397680  0.56602320  0.35000000  1
  Co  Co2  1  0.43397680  0.56602320  0.55000000  1
  Co  Co2  1  0.43397680  0.56602320  0.75000000  1
  Co  Co2  1  0.43397680  0.56602320  0.95000000  1
  Co  Co2  1  0.43397680  0.76602320  0.15000000  1
  Co  Co2  1  0.43397680  0.76602320  0.35000000  1
  Co  Co2  1  0.43397680  0.76602320  0.55000000  1
  Co  Co2  1  0.43397680  0.76602320  0.75000000  1
  Co  Co2  1  0.43397680  0.76602320  0.95000000  1
  Co  Co2  1  0.43397680  0.96602320  0.15000000  1
  Co  Co2  1  0.43397680  0.96602320  0.35000000  1
  Co  Co2  1  0.43397680  0.96602320  0.55000000  1
  Co  Co2  1  0.43397680  0.96602320  0.75000000  1
  Co  Co2  1  0.43397680  0.96602320  0.95000000  1
  Co  Co2  1  0.63397680  0.16602320  0.15000000  1
  Co  Co2  1  0.63397680  0.16602320  0.35000000  1
  Co  Co2  1  0.63397680  0.16602320  0.55000000  1
  Co  Co2  1  0.63397680  0.16602320  0.75000000  1
  Co  Co2  1  0.63397680  0.16602320  0.95000000  1
  Co  Co2  1  0.63397680  0.36602320  0.15000000  1
  Co  Co2  1  0.63397680  0.36602320  0.35000000  1
  Co  Co2  1  0.63397680  0.36602320  0.55000000  1
  Co  Co2  1  0.63397680  0.36602320  0.75000000  1
  Co  Co2  1  0.63397680  0.36602320  0.95000000  1
  Co  Co2  1  0.63397680  0.56602320  0.15000000  1
  Co  Co2  1  0.63397680  0.56602320  0.35000000  1
  Co  Co2  1  0.63397680  0.56602320  0.55000000  1
  Co  Co2  1  0.63397680  0.56602320  0.75000000  1
  Co  Co2  1  0.63397680  0.56602320  0.95000000  1
  Co  Co2  1  0.63397680  0.76602320  0.15000000  1
  Co  Co2  1  0.63397680  0.76602320  0.35000000  1
  Co  Co2  1  0.63397680  0.76602320  0.55000000  1
  Co  Co2  1  0.63397680  0.76602320  0.75000000  1
  Co  Co2  1  0.63397680  0.76602320  0.95000000  1
  Co  Co2  1  0.63397680  0.96602320  0.15000000  1
  Co  Co2  1  0.63397680  0.96602320  0.35000000  1
  Co  Co2  1  0.63397680  0.96602320  0.55000000  1
  Co  Co2  1  0.63397680  0.96602320  0.75000000  1
  Co  Co2  1  0.63397680  0.96602320  0.95000000  1
  Co  Co2  1  0.83397680  0.16602320  0.15000000  1
  Co  Co2  1  0.83397680  0.16602320  0.35000000  1
  Co  Co2  1  0.83397680  0.16602320  0.55000000  1
  Co  Co2  1  0.83397680  0.16602320  0.75000000  1
  Co  Co2  1  0.83397680  0.16602320  0.95000000  1
  Co  Co2  1  0.83397680  0.36602320  0.15000000  1
  Co  Co2  1  0.83397680  0.36602320  0.35000000  1
  Co  Co2  1  0.83397680  0.36602320  0.55000000  1
  Co  Co2  1  0.83397680  0.36602320  0.75000000  1
  Co  Co2  1  0.83397680  0.36602320  0.95000000  1
  Co  Co2  1  0.83397680  0.56602320  0.15000000  1
  Co  Co2  1  0.83397680  0.56602320  0.35000000  1
  Co  Co2  1  0.83397680  0.56602320  0.55000000  1
  Co  Co2  1  0.83397680  0.56602320  0.75000000  1
  Co  Co2  1  0.83397680  0.56602320  0.95000000  1
  Co  Co2  1  0.83397680  0.76602320  0.15000000  1
  Co  Co2  1  0.83397680  0.76602320  0.35000000  1
  Co  Co2  1  0.83397680  0.76602320  0.55000000  1
  Co  Co2  1  0.83397680  0.76602320  0.75000000  1
  Co  Co2  1  0.83397680  0.76602320  0.95000000  1
  Co  Co2  1  0.83397680  0.96602320  0.15000000  1
  Co  Co2  1  0.83397680  0.96602320  0.35000000  1
  Co  Co2  1  0.83397680  0.96602320  0.55000000  1
  Co  Co2  1  0.83397680  0.96602320  0.75000000  1
  Co  Co2  1  0.83397680  0.96602320  0.95000000  1
  Co  Co2  1  0.16602320  0.13204640  0.05000000  1
  Co  Co2  1  0.16602320  0.13204640  0.25000000  1
  Co  Co2  1  0.16602320  0.13204640  0.45000000  1
  Co  Co2  1  0.16602320  0.13204640  0.65000000  1
  Co  Co2  1  0.16602320  0.13204640  0.85000000  1
  Co  Co2  1  0.16602320  0.33204640  0.05000000  1
  Co  Co2  1  0.16602320  0.33204640  0.25000000  1
  Co  Co2  1  0.16602320  0.33204640  0.45000000  1
  Co  Co2  1  0.16602320  0.33204640  0.65000000  1
  Co  Co2  1  0.16602320  0.33204640  0.85000000  1
  Co  Co2  1  0.16602320  0.53204640  0.05000000  1
  Co  Co2  1  0.16602320  0.53204640  0.25000000  1
  Co  Co2  1  0.16602320  0.53204640  0.45000000  1
  Co  Co2  1  0.16602320  0.53204640  0.65000000  1
  Co  Co2  1  0.16602320  0.53204640  0.85000000  1
  Co  Co2  1  0.16602320  0.73204640  0.05000000  1
  Co  Co2  1  0.16602320  0.73204640  0.25000000  1
  Co  Co2  1  0.16602320  0.73204640  0.45000000  1
  Co  Co2  1  0.16602320  0.73204640  0.65000000  1
  Co  Co2  1  0.16602320  0.73204640  0.85000000  1
  Co  Co2  1  0.16602320  0.93204640  0.05000000  1
  Co  Co2  1  0.16602320  0.93204640  0.25000000  1
  Co  Co2  1  0.16602320  0.93204640  0.45000000  1
  Co  Co2  1  0.16602320  0.93204640  0.65000000  1
  Co  Co2  1  0.16602320  0.93204640  0.85000000  1
  Co  Co2  1  0.36602320  0.13204640  0.05000000  1
  Co  Co2  1  0.36602320  0.13204640  0.25000000  1
  Co  Co2  1  0.36602320  0.13204640  0.45000000  1
  Co  Co2  1  0.36602320  0.13204640  0.65000000  1
  Co  Co2  1  0.36602320  0.13204640  0.85000000  1
  Co  Co2  1  0.36602320  0.33204640  0.05000000  1
  Co  Co2  1  0.36602320  0.33204640  0.25000000  1
  Co  Co2  1  0.36602320  0.33204640  0.45000000  1
  Co  Co2  1  0.36602320  0.33204640  0.65000000  1
  Co  Co2  1  0.36602320  0.33204640  0.85000000  1
  Co  Co2  1  0.36602320  0.53204640  0.05000000  1
  Co  Co2  1  0.36602320  0.53204640  0.25000000  1
  Co  Co2  1  0.36602320  0.53204640  0.45000000  1
  Co  Co2  1  0.36602320  0.53204640  0.65000000  1
  Co  Co2  1  0.36602320  0.53204640  0.85000000  1
  Co  Co2  1  0.36602320  0.73204640  0.05000000  1
  Co  Co2  1  0.36602320  0.73204640  0.25000000  1
  Co  Co2  1  0.36602320  0.73204640  0.45000000  1
  Co  Co2  1  0.36602320  0.73204640  0.65000000  1
  Co  Co2  1  0.36602320  0.73204640  0.85000000  1
  Co  Co2  1  0.36602320  0.93204640  0.05000000  1
  Co  Co2  1  0.36602320  0.93204640  0.25000000  1
  Co  Co2  1  0.36602320  0.93204640  0.45000000  1
  Co  Co2  1  0.36602320  0.93204640  0.65000000  1
  Co  Co2  1  0.36602320  0.93204640  0.85000000  1
  Co  Co2  1  0.56602320  0.13204640  0.05000000  1
  Co  Co2  1  0.56602320  0.13204640  0.25000000  1
  Co  Co2  1  0.56602320  0.13204640  0.45000000  1
  Co  Co2  1  0.56602320  0.13204640  0.65000000  1
  Co  Co2  1  0.56602320  0.13204640  0.85000000  1
  Co  Co2  1  0.56602320  0.33204640  0.05000000  1
  Co  Co2  1  0.56602320  0.33204640  0.25000000  1
  Co  Co2  1  0.56602320  0.33204640  0.45000000  1
  Co  Co2  1  0.56602320  0.33204640  0.65000000  1
  Co  Co2  1  0.56602320  0.33204640  0.85000000  1
  Co  Co2  1  0.56602320  0.53204640  0.05000000  1
  Co  Co2  1  0.56602320  0.53204640  0.25000000  1
  Co  Co2  1  0.56602320  0.53204640  0.45000000  1
  Co  Co2  1  0.56602320  0.53204640  0.65000000  1
  Co  Co2  1  0.56602320  0.53204640  0.85000000  1
  Co  Co2  1  0.56602320  0.73204640  0.05000000  1
  Co  Co2  1  0.56602320  0.73204640  0.25000000  1
  Co  Co2  1  0.56602320  0.73204640  0.45000000  1
  Co  Co2  1  0.56602320  0.73204640  0.65000000  1
  Co  Co2  1  0.56602320  0.73204640  0.85000000  1
  Co  Co2  1  0.56602320  0.93204640  0.05000000  1
  Co  Co2  1  0.56602320  0.93204640  0.25000000  1
  Co  Co2  1  0.56602320  0.93204640  0.45000000  1
  Co  Co2  1  0.56602320  0.93204640  0.65000000  1
  Co  Co2  1  0.56602320  0.93204640  0.85000000  1
  Co  Co2  1  0.76602320  0.13204640  0.05000000  1
  Co  Co2  1  0.76602320  0.13204640  0.25000000  1
  Co  Co2  1  0.76602320  0.13204640  0.45000000  1
  Co  Co2  1  0.76602320  0.13204640  0.65000000  1
  Co  Co2  1  0.76602320  0.13204640  0.85000000  1
  Co  Co2  1  0.76602320  0.33204640  0.05000000  1
  Co  Co2  1  0.76602320  0.33204640  0.25000000  1
  Co  Co2  1  0.76602320  0.33204640  0.45000000  1
  Co  Co2  1  0.76602320  0.33204640  0.65000000  1
  Co  Co2  1  0.76602320  0.33204640  0.85000000  1
  Co  Co2  1  0.76602320  0.53204640  0.05000000  1
  Co  Co2  1  0.76602320  0.53204640  0.25000000  1
  Co  Co2  1  0.76602320  0.53204640  0.45000000  1
  Co  Co2  1  0.76602320  0.53204640  0.65000000  1
  Co  Co2  1  0.76602320  0.53204640  0.85000000  1
  Co  Co2  1  0.76602320  0.73204640  0.05000000  1
  Co  Co2  1  0.76602320  0.73204640  0.25000000  1
  Co  Co2  1  0.76602320  0.73204640  0.45000000  1
  Co  Co2  1  0.76602320  0.73204640  0.65000000  1
  Co  Co2  1  0.76602320  0.73204640  0.85000000  1
  Co  Co2  1  0.76602320  0.93204640  0.05000000  1
  Co  Co2  1  0.76602320  0.93204640  0.25000000  1
  Co  Co2  1  0.76602320  0.93204640  0.45000000  1
  Co  Co2  1  0.76602320  0.93204640  0.65000000  1
  Co  Co2  1  0.76602320  0.93204640  0.85000000  1
  Co  Co2  1  0.96602320  0.13204640  0.05000000  1
  Co  Co2  1  0.96602320  0.13204640  0.25000000  1
  Co  Co2  1  0.96602320  0.13204640  0.45000000  1
  Co  Co2  1  0.96602320  0.13204640  0.65000000  1
  Co  Co2  1  0.96602320  0.13204640  0.85000000  1
  Co  Co2  1  0.96602320  0.33204640  0.05000000  1
  Co  Co2  1  0.96602320  0.33204640  0.25000000  1
  Co  Co2  1  0.96602320  0.33204640  0.45000000  1
  Co  Co2  1  0.96602320  0.33204640  0.65000000  1
  Co  Co2  1  0.96602320  0.33204640  0.85000000  1
  Co  Co2  1  0.96602320  0.53204640  0.05000000  1
  Co  Co2  1  0.96602320  0.53204640  0.25000000  1
  Co  Co2  1  0.96602320  0.53204640  0.45000000  1
  Co  Co2  1  0.96602320  0.53204640  0.65000000  1
  Co  Co2  1  0.96602320  0.53204640  0.85000000  1
  Co  Co2  1  0.96602320  0.73204640  0.05000000  1
  Co  Co2  1  0.96602320  0.73204640  0.25000000  1
  Co  Co2  1  0.96602320  0.73204640  0.45000000  1
  Co  Co2  1  0.96602320  0.73204640  0.65000000  1
  Co  Co2  1  0.96602320  0.73204640  0.85000000  1
  Co  Co2  1  0.96602320  0.93204640  0.05000000  1
  Co  Co2  1  0.96602320  0.93204640  0.25000000  1
  Co  Co2  1  0.96602320  0.93204640  0.45000000  1
  Co  Co2  1  0.96602320  0.93204640  0.65000000  1
  Co  Co2  1  0.96602320  0.93204640  0.85000000  1
  Co  Co2  1  0.03397680  0.06795360  0.15000000  1
  Co  Co2  1  0.03397680  0.06795360  0.35000000  1
  Co  Co2  1  0.03397680  0.06795360  0.55000000  1
  Co  Co2  1  0.03397680  0.06795360  0.75000000  1
  Co  Co2  1  0.03397680  0.06795360  0.95000000  1
  Co  Co2  1  0.03397680  0.26795360  0.15000000  1
  Co  Co2  1  0.03397680  0.26795360  0.35000000  1
  Co  Co2  1  0.03397680  0.26795360  0.55000000  1
  Co  Co2  1  0.03397680  0.26795360  0.75000000  1
  Co  Co2  1  0.03397680  0.26795360  0.95000000  1
  Co  Co2  1  0.03397680  0.46795360  0.15000000  1
  Co  Co2  1  0.03397680  0.46795360  0.35000000  1
  Co  Co2  1  0.03397680  0.46795360  0.55000000  1
  Co  Co2  1  0.03397680  0.46795360  0.75000000  1
  Co  Co2  1  0.03397680  0.46795360  0.95000000  1
  Co  Co2  1  0.03397680  0.66795360  0.15000000  1
  Co  Co2  1  0.03397680  0.66795360  0.35000000  1
  Co  Co2  1  0.03397680  0.66795360  0.55000000  1
  Co  Co2  1  0.03397680  0.66795360  0.75000000  1
  Co  Co2  1  0.03397680  0.66795360  0.95000000  1
  Co  Co2  1  0.03397680  0.86795360  0.15000000  1
  Co  Co2  1  0.03397680  0.86795360  0.35000000  1
  Co  Co2  1  0.03397680  0.86795360  0.55000000  1
  Co  Co2  1  0.03397680  0.86795360  0.75000000  1
  Co  Co2  1  0.03397680  0.86795360  0.95000000  1
  Co  Co2  1  0.23397680  0.06795360  0.15000000  1
  Co  Co2  1  0.23397680  0.06795360  0.35000000  1
  Co  Co2  1  0.23397680  0.06795360  0.55000000  1
  Co  Co2  1  0.23397680  0.06795360  0.75000000  1
  Co  Co2  1  0.23397680  0.06795360  0.95000000  1
  Co  Co2  1  0.23397680  0.26795360  0.15000000  1
  Co  Co2  1  0.23397680  0.26795360  0.35000000  1
  Co  Co2  1  0.23397680  0.26795360  0.55000000  1
  Co  Co2  1  0.23397680  0.26795360  0.75000000  1
  Co  Co2  1  0.23397680  0.26795360  0.95000000  1
  Co  Co2  1  0.23397680  0.46795360  0.15000000  1
  Co  Co2  1  0.23397680  0.46795360  0.35000000  1
  Co  Co2  1  0.23397680  0.46795360  0.55000000  1
  Co  Co2  1  0.23397680  0.46795360  0.75000000  1
  Co  Co2  1  0.23397680  0.46795360  0.95000000  1
  Co  Co2  1  0.23397680  0.66795360  0.15000000  1
  Co  Co2  1  0.23397680  0.66795360  0.35000000  1
  Co  Co2  1  0.23397680  0.66795360  0.55000000  1
  Co  Co2  1  0.23397680  0.66795360  0.75000000  1
  Co  Co2  1  0.23397680  0.66795360  0.95000000  1
  Co  Co2  1  0.23397680  0.86795360  0.15000000  1
  Co  Co2  1  0.23397680  0.86795360  0.35000000  1
  Co  Co2  1  0.23397680  0.86795360  0.55000000  1
  Co  Co2  1  0.23397680  0.86795360  0.75000000  1
  Co  Co2  1  0.23397680  0.86795360  0.95000000  1
  Co  Co2  1  0.43397680  0.06795360  0.15000000  1
  Co  Co2  1  0.43397680  0.06795360  0.35000000  1
  Co  Co2  1  0.43397680  0.06795360  0.55000000  1
  Co  Co2  1  0.43397680  0.06795360  0.75000000  1
  Co  Co2  1  0.43397680  0.06795360  0.95000000  1
  Co  Co2  1  0.43397680  0.26795360  0.15000000  1
  Co  Co2  1  0.43397680  0.26795360  0.35000000  1
  Co  Co2  1  0.43397680  0.26795360  0.55000000  1
  Co  Co2  1  0.43397680  0.26795360  0.75000000  1
  Co  Co2  1  0.43397680  0.26795360  0.95000000  1
  Co  Co2  1  0.43397680  0.46795360  0.15000000  1
  Co  Co2  1  0.43397680  0.46795360  0.35000000  1
  Co  Co2  1  0.43397680  0.46795360  0.55000000  1
  Co  Co2  1  0.43397680  0.46795360  0.75000000  1
  Co  Co2  1  0.43397680  0.46795360  0.95000000  1
  Co  Co2  1  0.43397680  0.66795360  0.15000000  1
  Co  Co2  1  0.43397680  0.66795360  0.35000000  1
  Co  Co2  1  0.43397680  0.66795360  0.55000000  1
  Co  Co2  1  0.43397680  0.66795360  0.75000000  1
  Co  Co2  1  0.43397680  0.66795360  0.95000000  1
  Co  Co2  1  0.43397680  0.86795360  0.15000000  1
  Co  Co2  1  0.43397680  0.86795360  0.35000000  1
  Co  Co2  1  0.43397680  0.86795360  0.55000000  1
  Co  Co2  1  0.43397680  0.86795360  0.75000000  1
  Co  Co2  1  0.43397680  0.86795360  0.95000000  1
  Co  Co2  1  0.63397680  0.06795360  0.15000000  1
  Co  Co2  1  0.63397680  0.06795360  0.35000000  1
  Co  Co2  1  0.63397680  0.06795360  0.55000000  1
  Co  Co2  1  0.63397680  0.06795360  0.75000000  1
  Co  Co2  1  0.63397680  0.06795360  0.95000000  1
  Co  Co2  1  0.63397680  0.26795360  0.15000000  1
  Co  Co2  1  0.63397680  0.26795360  0.35000000  1
  Co  Co2  1  0.63397680  0.26795360  0.55000000  1
  Co  Co2  1  0.63397680  0.26795360  0.75000000  1
  Co  Co2  1  0.63397680  0.26795360  0.95000000  1
  Co  Co2  1  0.63397680  0.46795360  0.15000000  1
  Co  Co2  1  0.63397680  0.46795360  0.35000000  1
  Co  Co2  1  0.63397680  0.46795360  0.55000000  1
  Co  Co2  1  0.63397680  0.46795360  0.75000000  1
  Co  Co2  1  0.63397680  0.46795360  0.95000000  1
  Co  Co2  1  0.63397680  0.66795360  0.15000000  1
  Co  Co2  1  0.63397680  0.66795360  0.35000000  1
  Co  Co2  1  0.63397680  0.66795360  0.55000000  1
  Co  Co2  1  0.63397680  0.66795360  0.75000000  1
  Co  Co2  1  0.63397680  0.66795360  0.95000000  1
  Co  Co2  1  0.63397680  0.86795360  0.15000000  1
  Co  Co2  1  0.63397680  0.86795360  0.35000000  1
  Co  Co2  1  0.63397680  0.86795360  0.55000000  1
  Co  Co2  1  0.63397680  0.86795360  0.75000000  1
  Co  Co2  1  0.63397680  0.86795360  0.95000000  1
  Co  Co2  1  0.83397680  0.06795360  0.15000000  1
  Co  Co2  1  0.83397680  0.06795360  0.35000000  1
  Co  Co2  1  0.83397680  0.06795360  0.55000000  1
  Co  Co2  1  0.83397680  0.06795360  0.75000000  1
  Co  Co2  1  0.83397680  0.06795360  0.95000000  1
  Co  Co2  1  0.83397680  0.26795360  0.15000000  1
  Co  Co2  1  0.83397680  0.26795360  0.35000000  1
  Co  Co2  1  0.83397680  0.26795360  0.55000000  1
  Co  Co2  1  0.83397680  0.26795360  0.75000000  1
  Co  Co2  1  0.83397680  0.26795360  0.95000000  1
  Co  Co2  1  0.83397680  0.46795360  0.15000000  1
  Co  Co2  1  0.83397680  0.46795360  0.35000000  1
  Co  Co2  1  0.83397680  0.46795360  0.55000000  1
  Co  Co2  1  0.83397680  0.46795360  0.75000000  1
  Co  Co2  1  0.83397680  0.46795360  0.95000000  1
  Co  Co2  1  0.83397680  0.66795360  0.15000000  1
  Co  Co2  1  0.83397680  0.66795360  0.35000000  1
  Co  Co2  1  0.83397680  0.66795360  0.55000000  1
  Co  Co2  1  0.83397680  0.66795360  0.75000000  1
  Co  Co2  1  0.83397680  0.66795360  0.95000000  1
  Co  Co2  1  0.83397680  0.86795360  0.15000000  1
  Co  Co2  1  0.83397680  0.86795360  0.35000000  1
  Co  Co2  1  0.83397680  0.86795360  0.55000000  1
  Co  Co2  1  0.83397680  0.86795360  0.75000000  1
  Co  Co2  1  0.83397680  0.86795360  0.95000000  1
