# generated using pymatgen
data_Ta2Co
_symmetry_space_group_name_H-M   'P 1'
_cell_length_a   24.48000000
_cell_length_b   24.48000000
_cell_length_c   19.88000000
_cell_angle_alpha   90.00000000
_cell_angle_beta   90.00000000
_cell_angle_gamma   90.00000000
_symmetry_Int_Tables_number   1
_chemical_formula_structural   Ta2Co
_chemical_formula_sum   'Ta512 Co256'
_cell_volume   11913.49555200
_cell_formula_units_Z   256
loop_
 _symmetry_equiv_pos_site_id
 _symmetry_equiv_pos_as_xyz
  1  'x, y, z'
loop_
 _atom_site_type_symbol
 _atom_site_label
 _atom_site_symmetry_multiplicity
 _atom_site_fract_x
 _atom_site_fract_y
 _atom_site_fract_z
 _atom_site_occupancy
  Ta  Ta  1  0.03952500  0.16452500  0.00000000  1
  Ta  Ta  1  0.03952500  0.16452500  0.25000000  1
  Ta  Ta  1  0.03952500  0.16452500  0.50000000  1
  Ta  Ta  1  0.03952500  0.16452500  0.75000000  1
  Ta  Ta  1  0.03952500  0.41452500  0.00000000  1
  Ta  Ta  1  0.03952500  0.41452500  0.25000000  1
  Ta  Ta  1  0.03952500  0.41452500  0.50000000  1
  Ta  Ta  1  0.03952500  0.41452500  0.75000000  1
  Ta  Ta  1  0.03952500  0.66452500  0.00000000  1
  Ta  Ta  1  0.03952500  0.66452500  0.25000000  1
  Ta  Ta  1  0.03952500  0.66452500  0.50000000  1
  Ta  Ta  1  0.03952500  0.66452500  0.75000000  1
  Ta  Ta  1  0.03952500  0.91452500  0.00000000  1
  Ta  Ta  1  0.03952500  0.91452500  0.25000000  1
  Ta  Ta  1  0.03952500  0.91452500  0.50000000  1
  Ta  Ta  1  0.03952500  0.91452500  0.75000000  1
  Ta  Ta  1  0.28952500  0.16452500  0.00000000  1
  Ta  Ta  1  0.28952500  0.16452500  0.25000000  1
  Ta  Ta  1  0.28952500  0.16452500  0.50000000  1
  Ta  Ta  1  0.28952500  0.16452500  0.75000000  1
  Ta  Ta  1  0.28952500  0.41452500  0.00000000  1
  Ta  Ta  1  0.28952500  0.41452500  0.25000000  1
  Ta  Ta  1  0.28952500  0.41452500  0.50000000  1
  Ta  Ta  1  0.28952500  0.41452500  0.75000000  1
  Ta  Ta  1  0.28952500  0.66452500  0.00000000  1
  Ta  Ta  1  0.28952500  0.66452500  0.25000000  1
  Ta  Ta  1  0.28952500  0.66452500  0.50000000  1
  Ta  Ta  1  0.28952500  0.66452500  0.75000000  1
  Ta  Ta  1  0.28952500  0.91452500  0.00000000  1
  Ta  Ta  1  0.28952500  0.91452500  0.25000000  1
  Ta  Ta  1  0.28952500  0.91452500  0.50000000  1
  Ta  Ta  1  0.28952500  0.91452500  0.75000000  1
  Ta  Ta  1  0.53952500  0.16452500  0.00000000  1
  Ta  Ta  1  0.53952500  0.16452500  0.25000000  1
  Ta  Ta  1  0.53952500  0.16452500  0.50000000  1
  Ta  Ta  1  0.53952500  0.16452500  0.75000000  1
  Ta  Ta  1  0.53952500  0.41452500  0.00000000  1
  Ta  Ta  1  0.53952500  0.41452500  0.25000000  1
  Ta  Ta  1  0.53952500  0.41452500  0.50000000  1
  Ta  Ta  1  0.53952500  0.41452500  0.75000000  1
  Ta  Ta  1  0.53952500  0.66452500  0.00000000  1
  Ta  Ta  1  0.53952500  0.66452500  0.25000000  1
  Ta  Ta  1  0.53952500  0.66452500  0.50000000  1
  Ta  Ta  1  0.53952500  0.66452500  0.75000000  1
  Ta  Ta  1  0.53952500  0.91452500  0.00000000  1
  Ta  Ta  1  0.53952500  0.91452500  0.25000000  1
  Ta  Ta  1  0.53952500  0.91452500  0.50000000  1
  Ta  Ta  1  0.53952500  0.91452500  0.75000000  1
  Ta  Ta  1  0.78952500  0.16452500  0.00000000  1
  Ta  Ta  1  0.78952500  0.16452500  0.25000000  1
  Ta  Ta  1  0.78952500  0.16452500  0.50000000  1
  Ta  Ta  1  0.78952500  0.16452500  0.75000000  1
  Ta  Ta  1  0.78952500  0.41452500  0.00000000  1
  Ta  Ta  1  0.78952500  0.41452500  0.25000000  1
  Ta  Ta  1  0.78952500  0.41452500  0.50000000  1
  Ta  Ta  1  0.78952500  0.41452500  0.75000000  1
  Ta  Ta  1  0.78952500  0.66452500  0.00000000  1
  Ta  Ta  1  0.78952500  0.66452500  0.25000000  1
  Ta  Ta  1  0.78952500  0.66452500  0.50000000  1
  Ta  Ta  1  0.78952500  0.66452500  0.75000000  1
  Ta  Ta  1  0.78952500  0.91452500  0.00000000  1
  Ta  Ta  1  0.78952500  0.91452500  0.25000000  1
  Ta  Ta  1  0.78952500  0.91452500  0.50000000  1
  Ta  Ta  1  0.78952500  0.91452500  0.75000000  1
  Ta  Ta  1  0.16452500  0.03952500  0.12500000  1
  Ta  Ta  1  0.16452500  0.03952500  0.37500000  1
  Ta  Ta  1  0.16452500  0.03952500  0.62500000  1
  Ta  Ta  1  0.16452500  0.03952500  0.87500000  1
  Ta  Ta  1  0.16452500  0.28952500  0.12500000  1
  Ta  Ta  1  0.16452500  0.28952500  0.37500000  1
  Ta  Ta  1  0.16452500  0.28952500  0.62500000  1
  Ta  Ta  1  0.16452500  0.28952500  0.87500000  1
  Ta  Ta  1  0.16452500  0.53952500  0.12500000  1
  Ta  Ta  1  0.16452500  0.53952500  0.37500000  1
  Ta  Ta  1  0.16452500  0.53952500  0.62500000  1
  Ta  Ta  1  0.16452500  0.53952500  0.87500000  1
  Ta  Ta  1  0.16452500  0.78952500  0.12500000  1
  Ta  Ta  1  0.16452500  0.78952500  0.37500000  1
  Ta  Ta  1  0.16452500  0.78952500  0.62500000  1
  Ta  Ta  1  0.16452500  0.78952500  0.87500000  1
  Ta  Ta  1  0.41452500  0.03952500  0.12500000  1
  Ta  Ta  1  0.41452500  0.03952500  0.37500000  1
  Ta  Ta  1  0.41452500  0.03952500  0.62500000  1
  Ta  Ta  1  0.41452500  0.03952500  0.87500000  1
  Ta  Ta  1  0.41452500  0.28952500  0.12500000  1
  Ta  Ta  1  0.41452500  0.28952500  0.37500000  1
  Ta  Ta  1  0.41452500  0.28952500  0.62500000  1
  Ta  Ta  1  0.41452500  0.28952500  0.87500000  1
  Ta  Ta  1  0.41452500  0.53952500  0.12500000  1
  Ta  Ta  1  0.41452500  0.53952500  0.37500000  1
  Ta  Ta  1  0.41452500  0.53952500  0.62500000  1
  Ta  Ta  1  0.41452500  0.53952500  0.87500000  1
  Ta  Ta  1  0.41452500  0.78952500  0.12500000  1
  Ta  Ta  1  0.41452500  0.78952500  0.37500000  1
  Ta  Ta  1  0.41452500  0.78952500  0.62500000  1
  Ta  Ta  1  0.41452500  0.78952500  0.87500000  1
  Ta  Ta  1  0.66452500  0.03952500  0.12500000  1
  Ta  Ta  1  0.66452500  0.03952500  0.37500000  1
  Ta  Ta  1  0.66452500  0.03952500  0.62500000  1
  Ta  Ta  1  0.66452500  0.03952500  0.87500000  1
  Ta  Ta  1  0.66452500  0.28952500  0.12500000  1
  Ta  Ta  1  0.66452500  0.28952500  0.37500000  1
  Ta  Ta  1  0.66452500  0.28952500  0.62500000  1
  Ta  Ta  1  0.66452500  0.28952500  0.87500000  1
  Ta  Ta  1  0.66452500  0.53952500  0.12500000  1
  Ta  Ta  1  0.66452500  0.53952500  0.37500000  1
  Ta  Ta  1  0.66452500  0.53952500  0.62500000  1
  Ta  Ta  1  0.66452500  0.53952500  0.87500000  1
  Ta  Ta  1  0.66452500  0.78952500  0.12500000  1
  Ta  Ta  1  0.66452500  0.78952500  0.37500000  1
  Ta  Ta  1  0.66452500  0.78952500  0.62500000  1
  Ta  Ta  1  0.66452500  0.78952500  0.87500000  1
  Ta  Ta  1  0.91452500  0.03952500  0.12500000  1
  Ta  Ta  1  0.91452500  0.03952500  0.37500000  1
  Ta  Ta  1  0.91452500  0.03952500  0.62500000  1
  Ta  Ta  1  0.91452500  0.03952500  0.87500000  1
  Ta  Ta  1  0.91452500  0.28952500  0.12500000  1
  Ta  Ta  1  0.91452500  0.28952500  0.37500000  1
  Ta  Ta  1  0.91452500  0.28952500  0.62500000  1
  Ta  Ta  1  0.91452500  0.28952500  0.87500000  1
  Ta  Ta  1  0.91452500  0.53952500  0.12500000  1
  Ta  Ta  1  0.91452500  0.53952500  0.37500000  1
  Ta  Ta  1  0.91452500  0.53952500  0.62500000  1
  Ta  Ta  1  0.91452500  0.53952500  0.87500000  1
  Ta  Ta  1  0.91452500  0.78952500  0.12500000  1
  Ta  Ta  1  0.91452500  0.78952500  0.37500000  1
  Ta  Ta  1  0.91452500  0.78952500  0.62500000  1
  Ta  Ta  1  0.91452500  0.78952500  0.87500000  1
  Ta  Ta  1  0.08547500  0.21047500  0.12500000  1
  Ta  Ta  1  0.08547500  0.21047500  0.37500000  1
  Ta  Ta  1  0.08547500  0.21047500  0.62500000  1
  Ta  Ta  1  0.08547500  0.21047500  0.87500000  1
  Ta  Ta  1  0.08547500  0.46047500  0.12500000  1
  Ta  Ta  1  0.08547500  0.46047500  0.37500000  1
  Ta  Ta  1  0.08547500  0.46047500  0.62500000  1
  Ta  Ta  1  0.08547500  0.46047500  0.87500000  1
  Ta  Ta  1  0.08547500  0.71047500  0.12500000  1
  Ta  Ta  1  0.08547500  0.71047500  0.37500000  1
  Ta  Ta  1  0.08547500  0.71047500  0.62500000  1
  Ta  Ta  1  0.08547500  0.71047500  0.87500000  1
  Ta  Ta  1  0.08547500  0.96047500  0.12500000  1
  Ta  Ta  1  0.08547500  0.96047500  0.37500000  1
  Ta  Ta  1  0.08547500  0.96047500  0.62500000  1
  Ta  Ta  1  0.08547500  0.96047500  0.87500000  1
  Ta  Ta  1  0.33547500  0.21047500  0.12500000  1
  Ta  Ta  1  0.33547500  0.21047500  0.37500000  1
  Ta  Ta  1  0.33547500  0.21047500  0.62500000  1
  Ta  Ta  1  0.33547500  0.21047500  0.87500000  1
  Ta  Ta  1  0.33547500  0.46047500  0.12500000  1
  Ta  Ta  1  0.33547500  0.46047500  0.37500000  1
  Ta  Ta  1  0.33547500  0.46047500  0.62500000  1
  Ta  Ta  1  0.33547500  0.46047500  0.87500000  1
  Ta  Ta  1  0.33547500  0.71047500  0.12500000  1
  Ta  Ta  1  0.33547500  0.71047500  0.37500000  1
  Ta  Ta  1  0.33547500  0.71047500  0.62500000  1
  Ta  Ta  1  0.33547500  0.71047500  0.87500000  1
  Ta  Ta  1  0.33547500  0.96047500  0.12500000  1
  Ta  Ta  1  0.33547500  0.96047500  0.37500000  1
  Ta  Ta  1  0.33547500  0.96047500  0.62500000  1
  Ta  Ta  1  0.33547500  0.96047500  0.87500000  1
  Ta  Ta  1  0.58547500  0.21047500  0.12500000  1
  Ta  Ta  1  0.58547500  0.21047500  0.37500000  1
  Ta  Ta  1  0.58547500  0.21047500  0.62500000  1
  Ta  Ta  1  0.58547500  0.21047500  0.87500000  1
  Ta  Ta  1  0.58547500  0.46047500  0.12500000  1
  Ta  Ta  1  0.58547500  0.46047500  0.37500000  1
  Ta  Ta  1  0.58547500  0.46047500  0.62500000  1
  Ta  Ta  1  0.58547500  0.46047500  0.87500000  1
  Ta  Ta  1  0.58547500  0.71047500  0.12500000  1
  Ta  Ta  1  0.58547500  0.71047500  0.37500000  1
  Ta  Ta  1  0.58547500  0.71047500  0.62500000  1
  Ta  Ta  1  0.58547500  0.71047500  0.87500000  1
  Ta  Ta  1  0.58547500  0.96047500  0.12500000  1
  Ta  Ta  1  0.58547500  0.96047500  0.37500000  1
  Ta  Ta  1  0.58547500  0.96047500  0.62500000  1
  Ta  Ta  1  0.58547500  0.96047500  0.87500000  1
  Ta  Ta  1  0.83547500  0.21047500  0.12500000  1
  Ta  Ta  1  0.83547500  0.21047500  0.37500000  1
  Ta  Ta  1  0.83547500  0.21047500  0.62500000  1
  Ta  Ta  1  0.83547500  0.21047500  0.87500000  1
  Ta  Ta  1  0.83547500  0.46047500  0.12500000  1
  Ta  Ta  1  0.83547500  0.46047500  0.37500000  1
  Ta  Ta  1  0.83547500  0.46047500  0.62500000  1
  Ta  Ta  1  0.83547500  0.46047500  0.87500000  1
  Ta  Ta  1  0.83547500  0.71047500  0.12500000  1
  Ta  Ta  1  0.83547500  0.71047500  0.37500000  1
  Ta  Ta  1  0.83547500  0.71047500  0.62500000  1
  Ta  Ta  1  0.83547500  0.71047500  0.87500000  1
  Ta  Ta  1  0.83547500  0.96047500  0.12500000  1
  Ta  Ta  1  0.83547500  0.96047500  0.37500000  1
  Ta  Ta  1  0.83547500  0.96047500  0.62500000  1
  Ta  Ta  1  0.83547500  0.96047500  0.87500000  1
  Ta  Ta  1  0.21047500  0.08547500  0.00000000  1
  Ta  Ta  1  0.21047500  0.08547500  0.25000000  1
  Ta  Ta  1  0.21047500  0.08547500  0.50000000  1
  Ta  Ta  1  0.21047500  0.08547500  0.75000000  1
  Ta  Ta  1  0.21047500  0.33547500  0.00000000  1
  Ta  Ta  1  0.21047500  0.33547500  0.25000000  1
  Ta  Ta  1  0.21047500  0.33547500  0.50000000  1
  Ta  Ta  1  0.21047500  0.33547500  0.75000000  1
  Ta  Ta  1  0.21047500  0.58547500  0.00000000  1
  Ta  Ta  1  0.21047500  0.58547500  0.25000000  1
  Ta  Ta  1  0.21047500  0.58547500  0.50000000  1
  Ta  Ta  1  0.21047500  0.58547500  0.75000000  1
  Ta  Ta  1  0.21047500  0.83547500  0.00000000  1
  Ta  Ta  1  0.21047500  0.83547500  0.25000000  1
  Ta  Ta  1  0.21047500  0.83547500  0.50000000  1
  Ta  Ta  1  0.21047500  0.83547500  0.75000000  1
  Ta  Ta  1  0.46047500  0.08547500  0.00000000  1
  Ta  Ta  1  0.46047500  0.08547500  0.25000000  1
  Ta  Ta  1  0.46047500  0.08547500  0.50000000  1
  Ta  Ta  1  0.46047500  0.08547500  0.75000000  1
  Ta  Ta  1  0.46047500  0.33547500  0.00000000  1
  Ta  Ta  1  0.46047500  0.33547500  0.25000000  1
  Ta  Ta  1  0.46047500  0.33547500  0.50000000  1
  Ta  Ta  1  0.46047500  0.33547500  0.75000000  1
  Ta  Ta  1  0.46047500  0.58547500  0.00000000  1
  Ta  Ta  1  0.46047500  0.58547500  0.25000000  1
  Ta  Ta  1  0.46047500  0.58547500  0.50000000  1
  Ta  Ta  1  0.46047500  0.58547500  0.75000000  1
  Ta  Ta  1  0.46047500  0.83547500  0.00000000  1
  Ta  Ta  1  0.46047500  0.83547500  0.25000000  1
  Ta  Ta  1  0.46047500  0.83547500  0.50000000  1
  Ta  Ta  1  0.46047500  0.83547500  0.75000000  1
  Ta  Ta  1  0.71047500  0.08547500  0.00000000  1
  Ta  Ta  1  0.71047500  0.08547500  0.25000000  1
  Ta  Ta  1  0.71047500  0.08547500  0.50000000  1
  Ta  Ta  1  0.71047500  0.08547500  0.75000000  1
  Ta  Ta  1  0.71047500  0.33547500  0.00000000  1
  Ta  Ta  1  0.71047500  0.33547500  0.25000000  1
  Ta  Ta  1  0.71047500  0.33547500  0.50000000  1
  Ta  Ta  1  0.71047500  0.33547500  0.75000000  1
  Ta  Ta  1  0.71047500  0.58547500  0.00000000  1
  Ta  Ta  1  0.71047500  0.58547500  0.25000000  1
  Ta  Ta  1  0.71047500  0.58547500  0.50000000  1
  Ta  Ta  1  0.71047500  0.58547500  0.75000000  1
  Ta  Ta  1  0.71047500  0.83547500  0.00000000  1
  Ta  Ta  1  0.71047500  0.83547500  0.25000000  1
  Ta  Ta  1  0.71047500  0.83547500  0.50000000  1
  Ta  Ta  1  0.71047500  0.83547500  0.75000000  1
  Ta  Ta  1  0.96047500  0.08547500  0.00000000  1
  Ta  Ta  1  0.96047500  0.08547500  0.25000000  1
  Ta  Ta  1  0.96047500  0.08547500  0.50000000  1
  Ta  Ta  1  0.96047500  0.08547500  0.75000000  1
  Ta  Ta  1  0.96047500  0.33547500  0.00000000  1
  Ta  Ta  1  0.96047500  0.33547500  0.25000000  1
  Ta  Ta  1  0.96047500  0.33547500  0.50000000  1
  Ta  Ta  1  0.96047500  0.33547500  0.75000000  1
  Ta  Ta  1  0.96047500  0.58547500  0.00000000  1
  Ta  Ta  1  0.96047500  0.58547500  0.25000000  1
  Ta  Ta  1  0.96047500  0.58547500  0.50000000  1
  Ta  Ta  1  0.96047500  0.58547500  0.75000000  1
  Ta  Ta  1  0.96047500  0.83547500  0.00000000  1
  Ta  Ta  1  0.96047500  0.83547500  0.25000000  1
  Ta  Ta  1  0.96047500  0.83547500  0.50000000  1
  Ta  Ta  1  0.96047500  0.83547500  0.75000000  1
  Ta  Ta  1  0.16452500  0.21047500  0.00000000  1
  Ta  Ta  1  0.16452500  0.21047500  0.25000000  1
  Ta  Ta  1  0.16452500  0.21047500  0.50000000  1
  Ta  Ta  1  0.16452500  0.21047500  0.75000000  1
  Ta  Ta  1  0.16452500  0.46047500  0.00000000  1
  Ta  Ta  1  0.16452500  0.46047500  0.25000000  1
  Ta  Ta  1  0.16452500  0.46047500  0.50000000  1
  Ta  Ta  1  0.16452500  0.46047500  0.75000000  1
  Ta  Ta  1  0.16452500  0.71047500  0.00000000  1
  Ta  Ta  1  0.16452500  0.71047500  0.25000000  1
  Ta  Ta  1  0.16452500  0.71047500  0.50000000  1
  Ta  Ta  1  0.16452500  0.71047500  0.75000000  1
  Ta  Ta  1  0.16452500  0.96047500  0.00000000  1
  Ta  Ta  1  0.16452500  0.96047500  0.25000000  1
  Ta  Ta  1  0.16452500  0.96047500  0.50000000  1
  Ta  Ta  1  0.16452500  0.96047500  0.75000000  1
  Ta  Ta  1  0.41452500  0.21047500  0.00000000  1
  Ta  Ta  1  0.41452500  0.21047500  0.25000000  1
  Ta  Ta  1  0.41452500  0.21047500  0.50000000  1
  Ta  Ta  1  0.41452500  0.21047500  0.75000000  1
  Ta  Ta  1  0.41452500  0.46047500  0.00000000  1
  Ta  Ta  1  0.41452500  0.46047500  0.25000000  1
  Ta  Ta  1  0.41452500  0.46047500  0.50000000  1
  Ta  Ta  1  0.41452500  0.46047500  0.75000000  1
  Ta  Ta  1  0.41452500  0.71047500  0.00000000  1
  Ta  Ta  1  0.41452500  0.71047500  0.25000000  1
  Ta  Ta  1  0.41452500  0.71047500  0.50000000  1
  Ta  Ta  1  0.41452500  0.71047500  0.75000000  1
  Ta  Ta  1  0.41452500  0.96047500  0.00000000  1
  Ta  Ta  1  0.41452500  0.96047500  0.25000000  1
  Ta  Ta  1  0.41452500  0.96047500  0.50000000  1
  Ta  Ta  1  0.41452500  0.96047500  0.75000000  1
  Ta  Ta  1  0.66452500  0.21047500  0.00000000  1
  Ta  Ta  1  0.66452500  0.21047500  0.25000000  1
  Ta  Ta  1  0.66452500  0.21047500  0.50000000  1
  Ta  Ta  1  0.66452500  0.21047500  0.75000000  1
  Ta  Ta  1  0.66452500  0.46047500  0.00000000  1
  Ta  Ta  1  0.66452500  0.46047500  0.25000000  1
  Ta  Ta  1  0.66452500  0.46047500  0.50000000  1
  Ta  Ta  1  0.66452500  0.46047500  0.75000000  1
  Ta  Ta  1  0.66452500  0.71047500  0.00000000  1
  Ta  Ta  1  0.66452500  0.71047500  0.25000000  1
  Ta  Ta  1  0.66452500  0.71047500  0.50000000  1
  Ta  Ta  1  0.66452500  0.71047500  0.75000000  1
  Ta  Ta  1  0.66452500  0.96047500  0.00000000  1
  Ta  Ta  1  0.66452500  0.96047500  0.25000000  1
  Ta  Ta  1  0.66452500  0.96047500  0.50000000  1
  Ta  Ta  1  0.66452500  0.96047500  0.75000000  1
  Ta  Ta  1  0.91452500  0.21047500  0.00000000  1
  Ta  Ta  1  0.91452500  0.21047500  0.25000000  1
  Ta  Ta  1  0.91452500  0.21047500  0.50000000  1
  Ta  Ta  1  0.91452500  0.21047500  0.75000000  1
  Ta  Ta  1  0.91452500  0.46047500  0.00000000  1
  Ta  Ta  1  0.91452500  0.46047500  0.25000000  1
  Ta  Ta  1  0.91452500  0.46047500  0.50000000  1
  Ta  Ta  1  0.91452500  0.46047500  0.75000000  1
  Ta  Ta  1  0.91452500  0.71047500  0.00000000  1
  Ta  Ta  1  0.91452500  0.71047500  0.25000000  1
  Ta  Ta  1  0.91452500  0.71047500  0.50000000  1
  Ta  Ta  1  0.91452500  0.71047500  0.75000000  1
  Ta  Ta  1  0.91452500  0.96047500  0.00000000  1
  Ta  Ta  1  0.91452500  0.96047500  0.25000000  1
  Ta  Ta  1  0.91452500  0.96047500  0.50000000  1
  Ta  Ta  1  0.91452500  0.96047500  0.75000000  1
  Ta  Ta  1  0.03952500  0.08547500  0.12500000  1
  Ta  Ta  1  0.03952500  0.08547500  0.37500000  1
  Ta  Ta  1  0.03952500  0.08547500  0.62500000  1
  Ta  Ta  1  0.03952500  0.08547500  0.87500000  1
  Ta  Ta  1  0.03952500  0.33547500  0.12500000  1
  Ta  Ta  1  0.03952500  0.33547500  0.37500000  1
  Ta  Ta  1  0.03952500  0.33547500  0.62500000  1
  Ta  Ta  1  0.03952500  0.33547500  0.87500000  1
  Ta  Ta  1  0.03952500  0.58547500  0.12500000  1
  Ta  Ta  1  0.03952500  0.58547500  0.37500000  1
  Ta  Ta  1  0.03952500  0.58547500  0.62500000  1
  Ta  Ta  1  0.03952500  0.58547500  0.87500000  1
  Ta  Ta  1  0.03952500  0.83547500  0.12500000  1
  Ta  Ta  1  0.03952500  0.83547500  0.37500000  1
  Ta  Ta  1  0.03952500  0.83547500  0.62500000  1
  Ta  Ta  1  0.03952500  0.83547500  0.87500000  1
  Ta  Ta  1  0.28952500  0.08547500  0.12500000  1
  Ta  Ta  1  0.28952500  0.08547500  0.37500000  1
  Ta  Ta  1  0.28952500  0.08547500  0.62500000  1
  Ta  Ta  1  0.28952500  0.08547500  0.87500000  1
  Ta  Ta  1  0.28952500  0.33547500  0.12500000  1
  Ta  Ta  1  0.28952500  0.33547500  0.37500000  1
  Ta  Ta  1  0.28952500  0.33547500  0.62500000  1
  Ta  Ta  1  0.28952500  0.33547500  0.87500000  1
  Ta  Ta  1  0.28952500  0.58547500  0.12500000  1
  Ta  Ta  1  0.28952500  0.58547500  0.37500000  1
  Ta  Ta  1  0.28952500  0.58547500  0.62500000  1
  Ta  Ta  1  0.28952500  0.58547500  0.87500000  1
  Ta  Ta  1  0.28952500  0.83547500  0.12500000  1
  Ta  Ta  1  0.28952500  0.83547500  0.37500000  1
  Ta  Ta  1  0.28952500  0.83547500  0.62500000  1
  Ta  Ta  1  0.28952500  0.83547500  0.87500000  1
  Ta  Ta  1  0.53952500  0.08547500  0.12500000  1
  Ta  Ta  1  0.53952500  0.08547500  0.37500000  1
  Ta  Ta  1  0.53952500  0.08547500  0.62500000  1
  Ta  Ta  1  0.53952500  0.08547500  0.87500000  1
  Ta  Ta  1  0.53952500  0.33547500  0.12500000  1
  Ta  Ta  1  0.53952500  0.33547500  0.37500000  1
  Ta  Ta  1  0.53952500  0.33547500  0.62500000  1
  Ta  Ta  1  0.53952500  0.33547500  0.87500000  1
  Ta  Ta  1  0.53952500  0.58547500  0.12500000  1
  Ta  Ta  1  0.53952500  0.58547500  0.37500000  1
  Ta  Ta  1  0.53952500  0.58547500  0.62500000  1
  Ta  Ta  1  0.53952500  0.58547500  0.87500000  1
  Ta  Ta  1  0.53952500  0.83547500  0.12500000  1
  Ta  Ta  1  0.53952500  0.83547500  0.37500000  1
  Ta  Ta  1  0.53952500  0.83547500  0.62500000  1
  Ta  Ta  1  0.53952500  0.83547500  0.87500000  1
  Ta  Ta  1  0.78952500  0.08547500  0.12500000  1
  Ta  Ta  1  0.78952500  0.08547500  0.37500000  1
  Ta  Ta  1  0.78952500  0.08547500  0.62500000  1
  Ta  Ta  1  0.78952500  0.08547500  0.87500000  1
  Ta  Ta  1  0.78952500  0.33547500  0.12500000  1
  Ta  Ta  1  0.78952500  0.33547500  0.37500000  1
  Ta  Ta  1  0.78952500  0.33547500  0.62500000  1
  Ta  Ta  1  0.78952500  0.33547500  0.87500000  1
  Ta  Ta  1  0.78952500  0.58547500  0.12500000  1
  Ta  Ta  1  0.78952500  0.58547500  0.37500000  1
  Ta  Ta  1  0.78952500  0.58547500  0.62500000  1
  Ta  Ta  1  0.78952500  0.58547500  0.87500000  1
  Ta  Ta  1  0.78952500  0.83547500  0.12500000  1
  Ta  Ta  1  0.78952500  0.83547500  0.37500000  1
  Ta  Ta  1  0.78952500  0.83547500  0.62500000  1
  Ta  Ta  1  0.78952500  0.83547500  0.87500000  1
  Ta  Ta  1  0.08547500  0.03952500  0.00000000  1
  Ta  Ta  1  0.08547500  0.03952500  0.25000000  1
  Ta  Ta  1  0.08547500  0.03952500  0.50000000  1
  Ta  Ta  1  0.08547500  0.03952500  0.75000000  1
  Ta  Ta  1  0.08547500  0.28952500  0.00000000  1
  Ta  Ta  1  0.08547500  0.28952500  0.25000000  1
  Ta  Ta  1  0.08547500  0.28952500  0.50000000  1
  Ta  Ta  1  0.08547500  0.28952500  0.75000000  1
  Ta  Ta  1  0.08547500  0.53952500  0.00000000  1
  Ta  Ta  1  0.08547500  0.53952500  0.25000000  1
  Ta  Ta  1  0.08547500  0.53952500  0.50000000  1
  Ta  Ta  1  0.08547500  0.53952500  0.75000000  1
  Ta  Ta  1  0.08547500  0.78952500  0.00000000  1
  Ta  Ta  1  0.08547500  0.78952500  0.25000000  1
  Ta  Ta  1  0.08547500  0.78952500  0.50000000  1
  Ta  Ta  1  0.08547500  0.78952500  0.75000000  1
  Ta  Ta  1  0.33547500  0.03952500  0.00000000  1
  Ta  Ta  1  0.33547500  0.03952500  0.25000000  1
  Ta  Ta  1  0.33547500  0.03952500  0.50000000  1
  Ta  Ta  1  0.33547500  0.03952500  0.75000000  1
  Ta  Ta  1  0.33547500  0.28952500  0.00000000  1
  Ta  Ta  1  0.33547500  0.28952500  0.25000000  1
  Ta  Ta  1  0.33547500  0.28952500  0.50000000  1
  Ta  Ta  1  0.33547500  0.28952500  0.75000000  1
  Ta  Ta  1  0.33547500  0.53952500  0.00000000  1
  Ta  Ta  1  0.33547500  0.53952500  0.25000000  1
  Ta  Ta  1  0.33547500  0.53952500  0.50000000  1
  Ta  Ta  1  0.33547500  0.53952500  0.75000000  1
  Ta  Ta  1  0.33547500  0.78952500  0.00000000  1
  Ta  Ta  1  0.33547500  0.78952500  0.25000000  1
  Ta  Ta  1  0.33547500  0.78952500  0.50000000  1
  Ta  Ta  1  0.33547500  0.78952500  0.75000000  1
  Ta  Ta  1  0.58547500  0.03952500  0.00000000  1
  Ta  Ta  1  0.58547500  0.03952500  0.25000000  1
  Ta  Ta  1  0.58547500  0.03952500  0.50000000  1
  Ta  Ta  1  0.58547500  0.03952500  0.75000000  1
  Ta  Ta  1  0.58547500  0.28952500  0.00000000  1
  Ta  Ta  1  0.58547500  0.28952500  0.25000000  1
  Ta  Ta  1  0.58547500  0.28952500  0.50000000  1
  Ta  Ta  1  0.58547500  0.28952500  0.75000000  1
  Ta  Ta  1  0.58547500  0.53952500  0.00000000  1
  Ta  Ta  1  0.58547500  0.53952500  0.25000000  1
  Ta  Ta  1  0.58547500  0.53952500  0.50000000  1
  Ta  Ta  1  0.58547500  0.53952500  0.75000000  1
  Ta  Ta  1  0.58547500  0.78952500  0.00000000  1
  Ta  Ta  1  0.58547500  0.78952500  0.25000000  1
  Ta  Ta  1  0.58547500  0.78952500  0.50000000  1
  Ta  Ta  1  0.58547500  0.78952500  0.75000000  1
  Ta  Ta  1  0.83547500  0.03952500  0.00000000  1
  Ta  Ta  1  0.83547500  0.03952500  0.25000000  1
  Ta  Ta  1  0.83547500  0.03952500  0.50000000  1
  Ta  Ta  1  0.83547500  0.03952500  0.75000000  1
  Ta  Ta  1  0.83547500  0.28952500  0.00000000  1
  Ta  Ta  1  0.83547500  0.28952500  0.25000000  1
  Ta  Ta  1  0.83547500  0.28952500  0.50000000  1
  Ta  Ta  1  0.83547500  0.28952500  0.75000000  1
  Ta  Ta  1  0.83547500  0.53952500  0.00000000  1
  Ta  Ta  1  0.83547500  0.53952500  0.25000000  1
  Ta  Ta  1  0.83547500  0.53952500  0.50000000  1
  Ta  Ta  1  0.83547500  0.53952500  0.75000000  1
  Ta  Ta  1  0.83547500  0.78952500  0.00000000  1
  Ta  Ta  1  0.83547500  0.78952500  0.25000000  1
  Ta  Ta  1  0.83547500  0.78952500  0.50000000  1
  Ta  Ta  1  0.83547500  0.78952500  0.75000000  1
  Ta  Ta  1  0.21047500  0.16452500  0.12500000  1
  Ta  Ta  1  0.21047500  0.16452500  0.37500000  1
  Ta  Ta  1  0.21047500  0.16452500  0.62500000  1
  Ta  Ta  1  0.21047500  0.16452500  0.87500000  1
  Ta  Ta  1  0.21047500  0.41452500  0.12500000  1
  Ta  Ta  1  0.21047500  0.41452500  0.37500000  1
  Ta  Ta  1  0.21047500  0.41452500  0.62500000  1
  Ta  Ta  1  0.21047500  0.41452500  0.87500000  1
  Ta  Ta  1  0.21047500  0.66452500  0.12500000  1
  Ta  Ta  1  0.21047500  0.66452500  0.37500000  1
  Ta  Ta  1  0.21047500  0.66452500  0.62500000  1
  Ta  Ta  1  0.21047500  0.66452500  0.87500000  1
  Ta  Ta  1  0.21047500  0.91452500  0.12500000  1
  Ta  Ta  1  0.21047500  0.91452500  0.37500000  1
  Ta  Ta  1  0.21047500  0.91452500  0.62500000  1
  Ta  Ta  1  0.21047500  0.91452500  0.87500000  1
  Ta  Ta  1  0.46047500  0.16452500  0.12500000  1
  Ta  Ta  1  0.46047500  0.16452500  0.37500000  1
  Ta  Ta  1  0.46047500  0.16452500  0.62500000  1
  Ta  Ta  1  0.46047500  0.16452500  0.87500000  1
  Ta  Ta  1  0.46047500  0.41452500  0.12500000  1
  Ta  Ta  1  0.46047500  0.41452500  0.37500000  1
  Ta  Ta  1  0.46047500  0.41452500  0.62500000  1
  Ta  Ta  1  0.46047500  0.41452500  0.87500000  1
  Ta  Ta  1  0.46047500  0.66452500  0.12500000  1
  Ta  Ta  1  0.46047500  0.66452500  0.37500000  1
  Ta  Ta  1  0.46047500  0.66452500  0.62500000  1
  Ta  Ta  1  0.46047500  0.66452500  0.87500000  1
  Ta  Ta  1  0.46047500  0.91452500  0.12500000  1
  Ta  Ta  1  0.46047500  0.91452500  0.37500000  1
  Ta  Ta  1  0.46047500  0.91452500  0.62500000  1
  Ta  Ta  1  0.46047500  0.91452500  0.87500000  1
  Ta  Ta  1  0.71047500  0.16452500  0.12500000  1
  Ta  Ta  1  0.71047500  0.16452500  0.37500000  1
  Ta  Ta  1  0.71047500  0.16452500  0.62500000  1
  Ta  Ta  1  0.71047500  0.16452500  0.87500000  1
  Ta  Ta  1  0.71047500  0.41452500  0.12500000  1
  Ta  Ta  1  0.71047500  0.41452500  0.37500000  1
  Ta  Ta  1  0.71047500  0.41452500  0.62500000  1
  Ta  Ta  1  0.71047500  0.41452500  0.87500000  1
  Ta  Ta  1  0.71047500  0.66452500  0.12500000  1
  Ta  Ta  1  0.71047500  0.66452500  0.37500000  1
  Ta  Ta  1  0.71047500  0.66452500  0.62500000  1
  Ta  Ta  1  0.71047500  0.66452500  0.87500000  1
  Ta  Ta  1  0.71047500  0.91452500  0.12500000  1
  Ta  Ta  1  0.71047500  0.91452500  0.37500000  1
  Ta  Ta  1  0.71047500  0.91452500  0.62500000  1
  Ta  Ta  1  0.71047500  0.91452500  0.87500000  1
  Ta  Ta  1  0.96047500  0.16452500  0.12500000  1
  Ta  Ta  1  0.96047500  0.16452500  0.37500000  1
  Ta  Ta  1  0.96047500  0.16452500  0.62500000  1
  Ta  Ta  1  0.96047500  0.16452500  0.87500000  1
  Ta  Ta  1  0.96047500  0.41452500  0.12500000  1
  Ta  Ta  1  0.96047500  0.41452500  0.37500000  1
  Ta  Ta  1  0.96047500  0.41452500  0.62500000  1
  Ta  Ta  1  0.96047500  0.41452500  0.87500000  1
  Ta  Ta  1  0.96047500  0.66452500  0.12500000  1
  Ta  Ta  1  0.96047500  0.66452500  0.37500000  1
  Ta  Ta  1  0.96047500  0.66452500  0.62500000  1
  Ta  Ta  1  0.96047500  0.66452500  0.87500000  1
  Ta  Ta  1  0.96047500  0.91452500  0.12500000  1
  Ta  Ta  1  0.96047500  0.91452500  0.37500000  1
  Ta  Ta  1  0.96047500  0.91452500  0.62500000  1
  Ta  Ta  1  0.96047500  0.91452500  0.87500000  1
  Co  Co  1  0.00000000  0.00000000  0.06250000  1
  Co  Co  1  0.00000000  0.00000000  0.31250000  1
  Co  Co  1  0.00000000  0.00000000  0.56250000  1
  Co  Co  1  0.00000000  0.00000000  0.81250000  1
  Co  Co  1  0.00000000  0.25000000  0.06250000  1
  Co  Co  1  0.00000000  0.25000000  0.31250000  1
  Co  Co  1  0.00000000  0.25000000  0.56250000  1
  Co  Co  1  0.00000000  0.25000000  0.81250000  1
  Co  Co  1  0.00000000  0.50000000  0.06250000  1
  Co  Co  1  0.00000000  0.50000000  0.31250000  1
  Co  Co  1  0.00000000  0.50000000  0.56250000  1
  Co  Co  1  0.00000000  0.50000000  0.81250000  1
  Co  Co  1  0.00000000  0.75000000  0.06250000  1
  Co  Co  1  0.00000000  0.75000000  0.31250000  1
  Co  Co  1  0.00000000  0.75000000  0.56250000  1
  Co  Co  1  0.00000000  0.75000000  0.81250000  1
  Co  Co  1  0.25000000  0.00000000  0.06250000  1
  Co  Co  1  0.25000000  0.00000000  0.31250000  1
  Co  Co  1  0.25000000  0.00000000  0.56250000  1
  Co  Co  1  0.25000000  0.00000000  0.81250000  1
  Co  Co  1  0.25000000  0.25000000  0.06250000  1
  Co  Co  1  0.25000000  0.25000000  0.31250000  1
  Co  Co  1  0.25000000  0.25000000  0.56250000  1
  Co  Co  1  0.25000000  0.25000000  0.81250000  1
  Co  Co  1  0.25000000  0.50000000  0.06250000  1
  Co  Co  1  0.25000000  0.50000000  0.31250000  1
  Co  Co  1  0.25000000  0.50000000  0.56250000  1
  Co  Co  1  0.25000000  0.50000000  0.81250000  1
  Co  Co  1  0.25000000  0.75000000  0.06250000  1
  Co  Co  1  0.25000000  0.75000000  0.31250000  1
  Co  Co  1  0.25000000  0.75000000  0.56250000  1
  Co  Co  1  0.25000000  0.75000000  0.81250000  1
  Co  Co  1  0.50000000  0.00000000  0.06250000  1
  Co  Co  1  0.50000000  0.00000000  0.31250000  1
  Co  Co  1  0.50000000  0.00000000  0.56250000  1
  Co  Co  1  0.50000000  0.00000000  0.81250000  1
  Co  Co  1  0.50000000  0.25000000  0.06250000  1
  Co  Co  1  0.50000000  0.25000000  0.31250000  1
  Co  Co  1  0.50000000  0.25000000  0.56250000  1
  Co  Co  1  0.50000000  0.25000000  0.81250000  1
  Co  Co  1  0.50000000  0.50000000  0.06250000  1
  Co  Co  1  0.50000000  0.50000000  0.31250000  1
  Co  Co  1  0.50000000  0.50000000  0.56250000  1
  Co  Co  1  0.50000000  0.50000000  0.81250000  1
  Co  Co  1  0.50000000  0.75000000  0.06250000  1
  Co  Co  1  0.50000000  0.75000000  0.31250000  1
  Co  Co  1  0.50000000  0.75000000  0.56250000  1
  Co  Co  1  0.50000000  0.75000000  0.81250000  1
  Co  Co  1  0.75000000  0.00000000  0.06250000  1
  Co  Co  1  0.75000000  0.00000000  0.31250000  1
  Co  Co  1  0.75000000  0.00000000  0.56250000  1
  Co  Co  1  0.75000000  0.00000000  0.81250000  1
  Co  Co  1  0.75000000  0.25000000  0.06250000  1
  Co  Co  1  0.75000000  0.25000000  0.31250000  1
  Co  Co  1  0.75000000  0.25000000  0.56250000  1
  Co  Co  1  0.75000000  0.25000000  0.81250000  1
  Co  Co  1  0.75000000  0.50000000  0.06250000  1
  Co  Co  1  0.75000000  0.50000000  0.31250000  1
  Co  Co  1  0.75000000  0.50000000  0.56250000  1
  Co  Co  1  0.75000000  0.50000000  0.81250000  1
  Co  Co  1  0.75000000  0.75000000  0.06250000  1
  Co  Co  1  0.75000000  0.75000000  0.31250000  1
  Co  Co  1  0.75000000  0.75000000  0.56250000  1
  Co  Co  1  0.75000000  0.75000000  0.81250000  1
  Co  Co  1  0.12500000  0.12500000  0.18750000  1
  Co  Co  1  0.12500000  0.12500000  0.43750000  1
  Co  Co  1  0.12500000  0.12500000  0.68750000  1
  Co  Co  1  0.12500000  0.12500000  0.93750000  1
  Co  Co  1  0.12500000  0.37500000  0.18750000  1
  Co  Co  1  0.12500000  0.37500000  0.43750000  1
  Co  Co  1  0.12500000  0.37500000  0.68750000  1
  Co  Co  1  0.12500000  0.37500000  0.93750000  1
  Co  Co  1  0.12500000  0.62500000  0.18750000  1
  Co  Co  1  0.12500000  0.62500000  0.43750000  1
  Co  Co  1  0.12500000  0.62500000  0.68750000  1
  Co  Co  1  0.12500000  0.62500000  0.93750000  1
  Co  Co  1  0.12500000  0.87500000  0.18750000  1
  Co  Co  1  0.12500000  0.87500000  0.43750000  1
  Co  Co  1  0.12500000  0.87500000  0.68750000  1
  Co  Co  1  0.12500000  0.87500000  0.93750000  1
  Co  Co  1  0.37500000  0.12500000  0.18750000  1
  Co  Co  1  0.37500000  0.12500000  0.43750000  1
  Co  Co  1  0.37500000  0.12500000  0.68750000  1
  Co  Co  1  0.37500000  0.12500000  0.93750000  1
  Co  Co  1  0.37500000  0.37500000  0.18750000  1
  Co  Co  1  0.37500000  0.37500000  0.43750000  1
  Co  Co  1  0.37500000  0.37500000  0.68750000  1
  Co  Co  1  0.37500000  0.37500000  0.93750000  1
  Co  Co  1  0.37500000  0.62500000  0.18750000  1
  Co  Co  1  0.37500000  0.62500000  0.43750000  1
  Co  Co  1  0.37500000  0.62500000  0.68750000  1
  Co  Co  1  0.37500000  0.62500000  0.93750000  1
  Co  Co  1  0.37500000  0.87500000  0.18750000  1
  Co  Co  1  0.37500000  0.87500000  0.43750000  1
  Co  Co  1  0.37500000  0.87500000  0.68750000  1
  Co  Co  1  0.37500000  0.87500000  0.93750000  1
  Co  Co  1  0.62500000  0.12500000  0.18750000  1
  Co  Co  1  0.62500000  0.12500000  0.43750000  1
  Co  Co  1  0.62500000  0.12500000  0.68750000  1
  Co  Co  1  0.62500000  0.12500000  0.93750000  1
  Co  Co  1  0.62500000  0.37500000  0.18750000  1
  Co  Co  1  0.62500000  0.37500000  0.43750000  1
  Co  Co  1  0.62500000  0.37500000  0.68750000  1
  Co  Co  1  0.62500000  0.37500000  0.93750000  1
  Co  Co  1  0.62500000  0.62500000  0.18750000  1
  Co  Co  1  0.62500000  0.62500000  0.43750000  1
  Co  Co  1  0.62500000  0.62500000  0.68750000  1
  Co  Co  1  0.62500000  0.62500000  0.93750000  1
  Co  Co  1  0.62500000  0.87500000  0.18750000  1
  Co  Co  1  0.62500000  0.87500000  0.43750000  1
  Co  Co  1  0.62500000  0.87500000  0.68750000  1
  Co  Co  1  0.62500000  0.87500000  0.93750000  1
  Co  Co  1  0.87500000  0.12500000  0.18750000  1
  Co  Co  1  0.87500000  0.12500000  0.43750000  1
  Co  Co  1  0.87500000  0.12500000  0.68750000  1
  Co  Co  1  0.87500000  0.12500000  0.93750000  1
  Co  Co  1  0.87500000  0.37500000  0.18750000  1
  Co  Co  1  0.87500000  0.37500000  0.43750000  1
  Co  Co  1  0.87500000  0.37500000  0.68750000  1
  Co  Co  1  0.87500000  0.37500000  0.93750000  1
  Co  Co  1  0.87500000  0.62500000  0.18750000  1
  Co  Co  1  0.87500000  0.62500000  0.43750000  1
  Co  Co  1  0.87500000  0.62500000  0.68750000  1
  Co  Co  1  0.87500000  0.62500000  0.93750000  1
  Co  Co  1  0.87500000  0.87500000  0.18750000  1
  Co  Co  1  0.87500000  0.87500000  0.43750000  1
  Co  Co  1  0.87500000  0.87500000  0.68750000  1
  Co  Co  1  0.87500000  0.87500000  0.93750000  1
  Co  Co  1  0.00000000  0.00000000  0.18750000  1
  Co  Co  1  0.00000000  0.00000000  0.43750000  1
  Co  Co  1  0.00000000  0.00000000  0.68750000  1
  Co  Co  1  0.00000000  0.00000000  0.93750000  1
  Co  Co  1  0.00000000  0.25000000  0.18750000  1
  Co  Co  1  0.00000000  0.25000000  0.43750000  1
  Co  Co  1  0.00000000  0.25000000  0.68750000  1
  Co  Co  1  0.00000000  0.25000000  0.93750000  1
  Co  Co  1  0.00000000  0.50000000  0.18750000  1
  Co  Co  1  0.00000000  0.50000000  0.43750000  1
  Co  Co  1  0.00000000  0.50000000  0.68750000  1
  Co  Co  1  0.00000000  0.50000000  0.93750000  1
  Co  Co  1  0.00000000  0.75000000  0.18750000  1
  Co  Co  1  0.00000000  0.75000000  0.43750000  1
  Co  Co  1  0.00000000  0.75000000  0.68750000  1
  Co  Co  1  0.00000000  0.75000000  0.93750000  1
  Co  Co  1  0.25000000  0.00000000  0.18750000  1
  Co  Co  1  0.25000000  0.00000000  0.43750000  1
  Co  Co  1  0.25000000  0.00000000  0.68750000  1
  Co  Co  1  0.25000000  0.00000000  0.93750000  1
  Co  Co  1  0.25000000  0.25000000  0.18750000  1
  Co  Co  1  0.25000000  0.25000000  0.43750000  1
  Co  Co  1  0.25000000  0.25000000  0.68750000  1
  Co  Co  1  0.25000000  0.25000000  0.93750000  1
  Co  Co  1  0.25000000  0.50000000  0.18750000  1
  Co  Co  1  0.25000000  0.50000000  0.43750000  1
  Co  Co  1  0.25000000  0.50000000  0.68750000  1
  Co  Co  1  0.25000000  0.50000000  0.93750000  1
  Co  Co  1  0.25000000  0.75000000  0.18750000  1
  Co  Co  1  0.25000000  0.75000000  0.43750000  1
  Co  Co  1  0.25000000  0.75000000  0.68750000  1
  Co  Co  1  0.25000000  0.75000000  0.93750000  1
  Co  Co  1  0.50000000  0.00000000  0.18750000  1
  Co  Co  1  0.50000000  0.00000000  0.43750000  1
  Co  Co  1  0.50000000  0.00000000  0.68750000  1
  Co  Co  1  0.50000000  0.00000000  0.93750000  1
  Co  Co  1  0.50000000  0.25000000  0.18750000  1
  Co  Co  1  0.50000000  0.25000000  0.43750000  1
  Co  Co  1  0.50000000  0.25000000  0.68750000  1
  Co  Co  1  0.50000000  0.25000000  0.93750000  1
  Co  Co  1  0.50000000  0.50000000  0.18750000  1
  Co  Co  1  0.50000000  0.50000000  0.43750000  1
  Co  Co  1  0.50000000  0.50000000  0.68750000  1
  Co  Co  1  0.50000000  0.50000000  0.93750000  1
  Co  Co  1  0.50000000  0.75000000  0.18750000  1
  Co  Co  1  0.50000000  0.75000000  0.43750000  1
  Co  Co  1  0.50000000  0.75000000  0.68750000  1
  Co  Co  1  0.50000000  0.75000000  0.93750000  1
  Co  Co  1  0.75000000  0.00000000  0.18750000  1
  Co  Co  1  0.75000000  0.00000000  0.43750000  1
  Co  Co  1  0.75000000  0.00000000  0.68750000  1
  Co  Co  1  0.75000000  0.00000000  0.93750000  1
  Co  Co  1  0.75000000  0.25000000  0.18750000  1
  Co  Co  1  0.75000000  0.25000000  0.43750000  1
  Co  Co  1  0.75000000  0.25000000  0.68750000  1
  Co  Co  1  0.75000000  0.25000000  0.93750000  1
  Co  Co  1  0.75000000  0.50000000  0.18750000  1
  Co  Co  1  0.75000000  0.50000000  0.43750000  1
  Co  Co  1  0.75000000  0.50000000  0.68750000  1
  Co  Co  1  0.75000000  0.50000000  0.93750000  1
  Co  Co  1  0.75000000  0.75000000  0.18750000  1
  Co  Co  1  0.75000000  0.75000000  0.43750000  1
  Co  Co  1  0.75000000  0.75000000  0.68750000  1
  Co  Co  1  0.75000000  0.75000000  0.93750000  1
  Co  Co  1  0.12500000  0.12500000  0.06250000  1
  Co  Co  1  0.12500000  0.12500000  0.31250000  1
  Co  Co  1  0.12500000  0.12500000  0.56250000  1
  Co  Co  1  0.12500000  0.12500000  0.81250000  1
  Co  Co  1  0.12500000  0.37500000  0.06250000  1
  Co  Co  1  0.12500000  0.37500000  0.31250000  1
  Co  Co  1  0.12500000  0.37500000  0.56250000  1
  Co  Co  1  0.12500000  0.37500000  0.81250000  1
  Co  Co  1  0.12500000  0.62500000  0.06250000  1
  Co  Co  1  0.12500000  0.62500000  0.31250000  1
  Co  Co  1  0.12500000  0.62500000  0.56250000  1
  Co  Co  1  0.12500000  0.62500000  0.81250000  1
  Co  Co  1  0.12500000  0.87500000  0.06250000  1
  Co  Co  1  0.12500000  0.87500000  0.31250000  1
  Co  Co  1  0.12500000  0.87500000  0.56250000  1
  Co  Co  1  0.12500000  0.87500000  0.81250000  1
  Co  Co  1  0.37500000  0.12500000  0.06250000  1
  Co  Co  1  0.37500000  0.12500000  0.31250000  1
  Co  Co  1  0.37500000  0.12500000  0.56250000  1
  Co  Co  1  0.37500000  0.12500000  0.81250000  1
  Co  Co  1  0.37500000  0.37500000  0.06250000  1
  Co  Co  1  0.37500000  0.37500000  0.31250000  1
  Co  Co  1  0.37500000  0.37500000  0.56250000  1
  Co  Co  1  0.37500000  0.37500000  0.81250000  1
  Co  Co  1  0.37500000  0.62500000  0.06250000  1
  Co  Co  1  0.37500000  0.62500000  0.31250000  1
  Co  Co  1  0.37500000  0.62500000  0.56250000  1
  Co  Co  1  0.37500000  0.62500000  0.81250000  1
  Co  Co  1  0.37500000  0.87500000  0.06250000  1
  Co  Co  1  0.37500000  0.87500000  0.31250000  1
  Co  Co  1  0.37500000  0.87500000  0.56250000  1
  Co  Co  1  0.37500000  0.87500000  0.81250000  1
  Co  Co  1  0.62500000  0.12500000  0.06250000  1
  Co  Co  1  0.62500000  0.12500000  0.31250000  1
  Co  Co  1  0.62500000  0.12500000  0.56250000  1
  Co  Co  1  0.62500000  0.12500000  0.81250000  1
  Co  Co  1  0.62500000  0.37500000  0.06250000  1
  Co  Co  1  0.62500000  0.37500000  0.31250000  1
  Co  Co  1  0.62500000  0.37500000  0.56250000  1
  Co  Co  1  0.62500000  0.37500000  0.81250000  1
  Co  Co  1  0.62500000  0.62500000  0.06250000  1
  Co  Co  1  0.62500000  0.62500000  0.31250000  1
  Co  Co  1  0.62500000  0.62500000  0.56250000  1
  Co  Co  1  0.62500000  0.62500000  0.81250000  1
  Co  Co  1  0.62500000  0.87500000  0.06250000  1
  Co  Co  1  0.62500000  0.87500000  0.31250000  1
  Co  Co  1  0.62500000  0.87500000  0.56250000  1
  Co  Co  1  0.62500000  0.87500000  0.81250000  1
  Co  Co  1  0.87500000  0.12500000  0.06250000  1
  Co  Co  1  0.87500000  0.12500000  0.31250000  1
  Co  Co  1  0.87500000  0.12500000  0.56250000  1
  Co  Co  1  0.87500000  0.12500000  0.81250000  1
  Co  Co  1  0.87500000  0.37500000  0.06250000  1
  Co  Co  1  0.87500000  0.37500000  0.31250000  1
  Co  Co  1  0.87500000  0.37500000  0.56250000  1
  Co  Co  1  0.87500000  0.37500000  0.81250000  1
  Co  Co  1  0.87500000  0.62500000  0.06250000  1
  Co  Co  1  0.87500000  0.62500000  0.31250000  1
  Co  Co  1  0.87500000  0.62500000  0.56250000  1
  Co  Co  1  0.87500000  0.62500000  0.81250000  1
  Co  Co  1  0.87500000  0.87500000  0.06250000  1
  Co  Co  1  0.87500000  0.87500000  0.31250000  1
  Co  Co  1  0.87500000  0.87500000  0.56250000  1
  Co  Co  1  0.87500000  0.87500000  0.81250000  1
