# generated using pymatgen
data_Ta2Co
_symmetry_space_group_name_H-M   'P 1'
_cell_length_a   30.60000000
_cell_length_b   30.60000000
_cell_length_c   24.85000000
_cell_angle_alpha   90.00000000
_cell_angle_beta   90.00000000
_cell_angle_gamma   90.00000000
_symmetry_Int_Tables_number   1
_chemical_formula_structural   Ta2Co
_chemical_formula_sum   'Ta1000 Co500'
_cell_volume   23268.54600000
_cell_formula_units_Z   500
loop_
 _symmetry_equiv_pos_site_id
 _symmetry_equiv_pos_as_xyz
  1  'x, y, z'
loop_
 _atom_site_type_symbol
 _atom_site_label
 _atom_site_symmetry_multiplicity
 _atom_site_fract_x
 _atom_site_fract_y
 _atom_site_fract_z
 _atom_site_occupancy
  Ta  Ta0  1  0.06827862  0.03172138  0.10000000  1
  Ta  Ta0  1  0.06827862  0.03172138  0.30000000  1
  Ta  Ta0  1  0.06827862  0.03172138  0.50000000  1
  Ta  Ta0  1  0.06827862  0.03172138  0.70000000  1
  Ta  Ta0  1  0.06827862  0.03172138  0.90000000  1
  Ta  Ta0  1  0.06827862  0.23172138  0.10000000  1
  Ta  Ta0  1  0.06827862  0.23172138  0.30000000  1
  Ta  Ta0  1  0.06827862  0.23172138  0.50000000  1
  Ta  Ta0  1  0.06827862  0.23172138  0.70000000  1
  Ta  Ta0  1  0.06827862  0.23172138  0.90000000  1
  Ta  Ta0  1  0.06827862  0.43172138  0.10000000  1
  Ta  Ta0  1  0.06827862  0.43172138  0.30000000  1
  Ta  Ta0  1  0.06827862  0.43172138  0.50000000  1
  Ta  Ta0  1  0.06827862  0.43172138  0.70000000  1
  Ta  Ta0  1  0.06827862  0.43172138  0.90000000  1
  Ta  Ta0  1  0.06827862  0.63172138  0.10000000  1
  Ta  Ta0  1  0.06827862  0.63172138  0.30000000  1
  Ta  Ta0  1  0.06827862  0.63172138  0.50000000  1
  Ta  Ta0  1  0.06827862  0.63172138  0.70000000  1
  Ta  Ta0  1  0.06827862  0.63172138  0.90000000  1
  Ta  Ta0  1  0.06827862  0.83172138  0.10000000  1
  Ta  Ta0  1  0.06827862  0.83172138  0.30000000  1
  Ta  Ta0  1  0.06827862  0.83172138  0.50000000  1
  Ta  Ta0  1  0.06827862  0.83172138  0.70000000  1
  Ta  Ta0  1  0.06827862  0.83172138  0.90000000  1
  Ta  Ta0  1  0.26827862  0.03172138  0.10000000  1
  Ta  Ta0  1  0.26827862  0.03172138  0.30000000  1
  Ta  Ta0  1  0.26827862  0.03172138  0.50000000  1
  Ta  Ta0  1  0.26827862  0.03172138  0.70000000  1
  Ta  Ta0  1  0.26827862  0.03172138  0.90000000  1
  Ta  Ta0  1  0.26827862  0.23172138  0.10000000  1
  Ta  Ta0  1  0.26827862  0.23172138  0.30000000  1
  Ta  Ta0  1  0.26827862  0.23172138  0.50000000  1
  Ta  Ta0  1  0.26827862  0.23172138  0.70000000  1
  Ta  Ta0  1  0.26827862  0.23172138  0.90000000  1
  Ta  Ta0  1  0.26827862  0.43172138  0.10000000  1
  Ta  Ta0  1  0.26827862  0.43172138  0.30000000  1
  Ta  Ta0  1  0.26827862  0.43172138  0.50000000  1
  Ta  Ta0  1  0.26827862  0.43172138  0.70000000  1
  Ta  Ta0  1  0.26827862  0.43172138  0.90000000  1
  Ta  Ta0  1  0.26827862  0.63172138  0.10000000  1
  Ta  Ta0  1  0.26827862  0.63172138  0.30000000  1
  Ta  Ta0  1  0.26827862  0.63172138  0.50000000  1
  Ta  Ta0  1  0.26827862  0.63172138  0.70000000  1
  Ta  Ta0  1  0.26827862  0.63172138  0.90000000  1
  Ta  Ta0  1  0.26827862  0.83172138  0.10000000  1
  Ta  Ta0  1  0.26827862  0.83172138  0.30000000  1
  Ta  Ta0  1  0.26827862  0.83172138  0.50000000  1
  Ta  Ta0  1  0.26827862  0.83172138  0.70000000  1
  Ta  Ta0  1  0.26827862  0.83172138  0.90000000  1
  Ta  Ta0  1  0.46827862  0.03172138  0.10000000  1
  Ta  Ta0  1  0.46827862  0.03172138  0.30000000  1
  Ta  Ta0  1  0.46827862  0.03172138  0.50000000  1
  Ta  Ta0  1  0.46827862  0.03172138  0.70000000  1
  Ta  Ta0  1  0.46827862  0.03172138  0.90000000  1
  Ta  Ta0  1  0.46827862  0.23172138  0.10000000  1
  Ta  Ta0  1  0.46827862  0.23172138  0.30000000  1
  Ta  Ta0  1  0.46827862  0.23172138  0.50000000  1
  Ta  Ta0  1  0.46827862  0.23172138  0.70000000  1
  Ta  Ta0  1  0.46827862  0.23172138  0.90000000  1
  Ta  Ta0  1  0.46827862  0.43172138  0.10000000  1
  Ta  Ta0  1  0.46827862  0.43172138  0.30000000  1
  Ta  Ta0  1  0.46827862  0.43172138  0.50000000  1
  Ta  Ta0  1  0.46827862  0.43172138  0.70000000  1
  Ta  Ta0  1  0.46827862  0.43172138  0.90000000  1
  Ta  Ta0  1  0.46827862  0.63172138  0.10000000  1
  Ta  Ta0  1  0.46827862  0.63172138  0.30000000  1
  Ta  Ta0  1  0.46827862  0.63172138  0.50000000  1
  Ta  Ta0  1  0.46827862  0.63172138  0.70000000  1
  Ta  Ta0  1  0.46827862  0.63172138  0.90000000  1
  Ta  Ta0  1  0.46827862  0.83172138  0.10000000  1
  Ta  Ta0  1  0.46827862  0.83172138  0.30000000  1
  Ta  Ta0  1  0.46827862  0.83172138  0.50000000  1
  Ta  Ta0  1  0.46827862  0.83172138  0.70000000  1
  Ta  Ta0  1  0.46827862  0.83172138  0.90000000  1
  Ta  Ta0  1  0.66827862  0.03172138  0.10000000  1
  Ta  Ta0  1  0.66827862  0.03172138  0.30000000  1
  Ta  Ta0  1  0.66827862  0.03172138  0.50000000  1
  Ta  Ta0  1  0.66827862  0.03172138  0.70000000  1
  Ta  Ta0  1  0.66827862  0.03172138  0.90000000  1
  Ta  Ta0  1  0.66827862  0.23172138  0.10000000  1
  Ta  Ta0  1  0.66827862  0.23172138  0.30000000  1
  Ta  Ta0  1  0.66827862  0.23172138  0.50000000  1
  Ta  Ta0  1  0.66827862  0.23172138  0.70000000  1
  Ta  Ta0  1  0.66827862  0.23172138  0.90000000  1
  Ta  Ta0  1  0.66827862  0.43172138  0.10000000  1
  Ta  Ta0  1  0.66827862  0.43172138  0.30000000  1
  Ta  Ta0  1  0.66827862  0.43172138  0.50000000  1
  Ta  Ta0  1  0.66827862  0.43172138  0.70000000  1
  Ta  Ta0  1  0.66827862  0.43172138  0.90000000  1
  Ta  Ta0  1  0.66827862  0.63172138  0.10000000  1
  Ta  Ta0  1  0.66827862  0.63172138  0.30000000  1
  Ta  Ta0  1  0.66827862  0.63172138  0.50000000  1
  Ta  Ta0  1  0.66827862  0.63172138  0.70000000  1
  Ta  Ta0  1  0.66827862  0.63172138  0.90000000  1
  Ta  Ta0  1  0.66827862  0.83172138  0.10000000  1
  Ta  Ta0  1  0.66827862  0.83172138  0.30000000  1
  Ta  Ta0  1  0.66827862  0.83172138  0.50000000  1
  Ta  Ta0  1  0.66827862  0.83172138  0.70000000  1
  Ta  Ta0  1  0.66827862  0.83172138  0.90000000  1
  Ta  Ta0  1  0.86827862  0.03172138  0.10000000  1
  Ta  Ta0  1  0.86827862  0.03172138  0.30000000  1
  Ta  Ta0  1  0.86827862  0.03172138  0.50000000  1
  Ta  Ta0  1  0.86827862  0.03172138  0.70000000  1
  Ta  Ta0  1  0.86827862  0.03172138  0.90000000  1
  Ta  Ta0  1  0.86827862  0.23172138  0.10000000  1
  Ta  Ta0  1  0.86827862  0.23172138  0.30000000  1
  Ta  Ta0  1  0.86827862  0.23172138  0.50000000  1
  Ta  Ta0  1  0.86827862  0.23172138  0.70000000  1
  Ta  Ta0  1  0.86827862  0.23172138  0.90000000  1
  Ta  Ta0  1  0.86827862  0.43172138  0.10000000  1
  Ta  Ta0  1  0.86827862  0.43172138  0.30000000  1
  Ta  Ta0  1  0.86827862  0.43172138  0.50000000  1
  Ta  Ta0  1  0.86827862  0.43172138  0.70000000  1
  Ta  Ta0  1  0.86827862  0.43172138  0.90000000  1
  Ta  Ta0  1  0.86827862  0.63172138  0.10000000  1
  Ta  Ta0  1  0.86827862  0.63172138  0.30000000  1
  Ta  Ta0  1  0.86827862  0.63172138  0.50000000  1
  Ta  Ta0  1  0.86827862  0.63172138  0.70000000  1
  Ta  Ta0  1  0.86827862  0.63172138  0.90000000  1
  Ta  Ta0  1  0.86827862  0.83172138  0.10000000  1
  Ta  Ta0  1  0.86827862  0.83172138  0.30000000  1
  Ta  Ta0  1  0.86827862  0.83172138  0.50000000  1
  Ta  Ta0  1  0.86827862  0.83172138  0.70000000  1
  Ta  Ta0  1  0.86827862  0.83172138  0.90000000  1
  Ta  Ta1  1  0.13172138  0.03172138  0.00000000  1
  Ta  Ta1  1  0.13172138  0.03172138  0.20000000  1
  Ta  Ta1  1  0.13172138  0.03172138  0.40000000  1
  Ta  Ta1  1  0.13172138  0.03172138  0.60000000  1
  Ta  Ta1  1  0.13172138  0.03172138  0.80000000  1
  Ta  Ta1  1  0.13172138  0.23172138  0.00000000  1
  Ta  Ta1  1  0.13172138  0.23172138  0.20000000  1
  Ta  Ta1  1  0.13172138  0.23172138  0.40000000  1
  Ta  Ta1  1  0.13172138  0.23172138  0.60000000  1
  Ta  Ta1  1  0.13172138  0.23172138  0.80000000  1
  Ta  Ta1  1  0.13172138  0.43172138  0.00000000  1
  Ta  Ta1  1  0.13172138  0.43172138  0.20000000  1
  Ta  Ta1  1  0.13172138  0.43172138  0.40000000  1
  Ta  Ta1  1  0.13172138  0.43172138  0.60000000  1
  Ta  Ta1  1  0.13172138  0.43172138  0.80000000  1
  Ta  Ta1  1  0.13172138  0.63172138  0.00000000  1
  Ta  Ta1  1  0.13172138  0.63172138  0.20000000  1
  Ta  Ta1  1  0.13172138  0.63172138  0.40000000  1
  Ta  Ta1  1  0.13172138  0.63172138  0.60000000  1
  Ta  Ta1  1  0.13172138  0.63172138  0.80000000  1
  Ta  Ta1  1  0.13172138  0.83172138  0.00000000  1
  Ta  Ta1  1  0.13172138  0.83172138  0.20000000  1
  Ta  Ta1  1  0.13172138  0.83172138  0.40000000  1
  Ta  Ta1  1  0.13172138  0.83172138  0.60000000  1
  Ta  Ta1  1  0.13172138  0.83172138  0.80000000  1
  Ta  Ta1  1  0.33172138  0.03172138  0.00000000  1
  Ta  Ta1  1  0.33172138  0.03172138  0.20000000  1
  Ta  Ta1  1  0.33172138  0.03172138  0.40000000  1
  Ta  Ta1  1  0.33172138  0.03172138  0.60000000  1
  Ta  Ta1  1  0.33172138  0.03172138  0.80000000  1
  Ta  Ta1  1  0.33172138  0.23172138  0.00000000  1
  Ta  Ta1  1  0.33172138  0.23172138  0.20000000  1
  Ta  Ta1  1  0.33172138  0.23172138  0.40000000  1
  Ta  Ta1  1  0.33172138  0.23172138  0.60000000  1
  Ta  Ta1  1  0.33172138  0.23172138  0.80000000  1
  Ta  Ta1  1  0.33172138  0.43172138  0.00000000  1
  Ta  Ta1  1  0.33172138  0.43172138  0.20000000  1
  Ta  Ta1  1  0.33172138  0.43172138  0.40000000  1
  Ta  Ta1  1  0.33172138  0.43172138  0.60000000  1
  Ta  Ta1  1  0.33172138  0.43172138  0.80000000  1
  Ta  Ta1  1  0.33172138  0.63172138  0.00000000  1
  Ta  Ta1  1  0.33172138  0.63172138  0.20000000  1
  Ta  Ta1  1  0.33172138  0.63172138  0.40000000  1
  Ta  Ta1  1  0.33172138  0.63172138  0.60000000  1
  Ta  Ta1  1  0.33172138  0.63172138  0.80000000  1
  Ta  Ta1  1  0.33172138  0.83172138  0.00000000  1
  Ta  Ta1  1  0.33172138  0.83172138  0.20000000  1
  Ta  Ta1  1  0.33172138  0.83172138  0.40000000  1
  Ta  Ta1  1  0.33172138  0.83172138  0.60000000  1
  Ta  Ta1  1  0.33172138  0.83172138  0.80000000  1
  Ta  Ta1  1  0.53172138  0.03172138  0.00000000  1
  Ta  Ta1  1  0.53172138  0.03172138  0.20000000  1
  Ta  Ta1  1  0.53172138  0.03172138  0.40000000  1
  Ta  Ta1  1  0.53172138  0.03172138  0.60000000  1
  Ta  Ta1  1  0.53172138  0.03172138  0.80000000  1
  Ta  Ta1  1  0.53172138  0.23172138  0.00000000  1
  Ta  Ta1  1  0.53172138  0.23172138  0.20000000  1
  Ta  Ta1  1  0.53172138  0.23172138  0.40000000  1
  Ta  Ta1  1  0.53172138  0.23172138  0.60000000  1
  Ta  Ta1  1  0.53172138  0.23172138  0.80000000  1
  Ta  Ta1  1  0.53172138  0.43172138  0.00000000  1
  Ta  Ta1  1  0.53172138  0.43172138  0.20000000  1
  Ta  Ta1  1  0.53172138  0.43172138  0.40000000  1
  Ta  Ta1  1  0.53172138  0.43172138  0.60000000  1
  Ta  Ta1  1  0.53172138  0.43172138  0.80000000  1
  Ta  Ta1  1  0.53172138  0.63172138  0.00000000  1
  Ta  Ta1  1  0.53172138  0.63172138  0.20000000  1
  Ta  Ta1  1  0.53172138  0.63172138  0.40000000  1
  Ta  Ta1  1  0.53172138  0.63172138  0.60000000  1
  Ta  Ta1  1  0.53172138  0.63172138  0.80000000  1
  Ta  Ta1  1  0.53172138  0.83172138  0.00000000  1
  Ta  Ta1  1  0.53172138  0.83172138  0.20000000  1
  Ta  Ta1  1  0.53172138  0.83172138  0.40000000  1
  Ta  Ta1  1  0.53172138  0.83172138  0.60000000  1
  Ta  Ta1  1  0.53172138  0.83172138  0.80000000  1
  Ta  Ta1  1  0.73172138  0.03172138  0.00000000  1
  Ta  Ta1  1  0.73172138  0.03172138  0.20000000  1
  Ta  Ta1  1  0.73172138  0.03172138  0.40000000  1
  Ta  Ta1  1  0.73172138  0.03172138  0.60000000  1
  Ta  Ta1  1  0.73172138  0.03172138  0.80000000  1
  Ta  Ta1  1  0.73172138  0.23172138  0.00000000  1
  Ta  Ta1  1  0.73172138  0.23172138  0.20000000  1
  Ta  Ta1  1  0.73172138  0.23172138  0.40000000  1
  Ta  Ta1  1  0.73172138  0.23172138  0.60000000  1
  Ta  Ta1  1  0.73172138  0.23172138  0.80000000  1
  Ta  Ta1  1  0.73172138  0.43172138  0.00000000  1
  Ta  Ta1  1  0.73172138  0.43172138  0.20000000  1
  Ta  Ta1  1  0.73172138  0.43172138  0.40000000  1
  Ta  Ta1  1  0.73172138  0.43172138  0.60000000  1
  Ta  Ta1  1  0.73172138  0.43172138  0.80000000  1
  Ta  Ta1  1  0.73172138  0.63172138  0.00000000  1
  Ta  Ta1  1  0.73172138  0.63172138  0.20000000  1
  Ta  Ta1  1  0.73172138  0.63172138  0.40000000  1
  Ta  Ta1  1  0.73172138  0.63172138  0.60000000  1
  Ta  Ta1  1  0.73172138  0.63172138  0.80000000  1
  Ta  Ta1  1  0.73172138  0.83172138  0.00000000  1
  Ta  Ta1  1  0.73172138  0.83172138  0.20000000  1
  Ta  Ta1  1  0.73172138  0.83172138  0.40000000  1
  Ta  Ta1  1  0.73172138  0.83172138  0.60000000  1
  Ta  Ta1  1  0.73172138  0.83172138  0.80000000  1
  Ta  Ta1  1  0.93172138  0.03172138  0.00000000  1
  Ta  Ta1  1  0.93172138  0.03172138  0.20000000  1
  Ta  Ta1  1  0.93172138  0.03172138  0.40000000  1
  Ta  Ta1  1  0.93172138  0.03172138  0.60000000  1
  Ta  Ta1  1  0.93172138  0.03172138  0.80000000  1
  Ta  Ta1  1  0.93172138  0.23172138  0.00000000  1
  Ta  Ta1  1  0.93172138  0.23172138  0.20000000  1
  Ta  Ta1  1  0.93172138  0.23172138  0.40000000  1
  Ta  Ta1  1  0.93172138  0.23172138  0.60000000  1
  Ta  Ta1  1  0.93172138  0.23172138  0.80000000  1
  Ta  Ta1  1  0.93172138  0.43172138  0.00000000  1
  Ta  Ta1  1  0.93172138  0.43172138  0.20000000  1
  Ta  Ta1  1  0.93172138  0.43172138  0.40000000  1
  Ta  Ta1  1  0.93172138  0.43172138  0.60000000  1
  Ta  Ta1  1  0.93172138  0.43172138  0.80000000  1
  Ta  Ta1  1  0.93172138  0.63172138  0.00000000  1
  Ta  Ta1  1  0.93172138  0.63172138  0.20000000  1
  Ta  Ta1  1  0.93172138  0.63172138  0.40000000  1
  Ta  Ta1  1  0.93172138  0.63172138  0.60000000  1
  Ta  Ta1  1  0.93172138  0.63172138  0.80000000  1
  Ta  Ta1  1  0.93172138  0.83172138  0.00000000  1
  Ta  Ta1  1  0.93172138  0.83172138  0.20000000  1
  Ta  Ta1  1  0.93172138  0.83172138  0.40000000  1
  Ta  Ta1  1  0.93172138  0.83172138  0.60000000  1
  Ta  Ta1  1  0.93172138  0.83172138  0.80000000  1
  Ta  Ta2  1  0.06827862  0.16827862  0.00000000  1
  Ta  Ta2  1  0.06827862  0.16827862  0.20000000  1
  Ta  Ta2  1  0.06827862  0.16827862  0.40000000  1
  Ta  Ta2  1  0.06827862  0.16827862  0.60000000  1
  Ta  Ta2  1  0.06827862  0.16827862  0.80000000  1
  Ta  Ta2  1  0.06827862  0.36827862  0.00000000  1
  Ta  Ta2  1  0.06827862  0.36827862  0.20000000  1
  Ta  Ta2  1  0.06827862  0.36827862  0.40000000  1
  Ta  Ta2  1  0.06827862  0.36827862  0.60000000  1
  Ta  Ta2  1  0.06827862  0.36827862  0.80000000  1
  Ta  Ta2  1  0.06827862  0.56827862  0.00000000  1
  Ta  Ta2  1  0.06827862  0.56827862  0.20000000  1
  Ta  Ta2  1  0.06827862  0.56827862  0.40000000  1
  Ta  Ta2  1  0.06827862  0.56827862  0.60000000  1
  Ta  Ta2  1  0.06827862  0.56827862  0.80000000  1
  Ta  Ta2  1  0.06827862  0.76827862  0.00000000  1
  Ta  Ta2  1  0.06827862  0.76827862  0.20000000  1
  Ta  Ta2  1  0.06827862  0.76827862  0.40000000  1
  Ta  Ta2  1  0.06827862  0.76827862  0.60000000  1
  Ta  Ta2  1  0.06827862  0.76827862  0.80000000  1
  Ta  Ta2  1  0.06827862  0.96827862  0.00000000  1
  Ta  Ta2  1  0.06827862  0.96827862  0.20000000  1
  Ta  Ta2  1  0.06827862  0.96827862  0.40000000  1
  Ta  Ta2  1  0.06827862  0.96827862  0.60000000  1
  Ta  Ta2  1  0.06827862  0.96827862  0.80000000  1
  Ta  Ta2  1  0.26827862  0.16827862  0.00000000  1
  Ta  Ta2  1  0.26827862  0.16827862  0.20000000  1
  Ta  Ta2  1  0.26827862  0.16827862  0.40000000  1
  Ta  Ta2  1  0.26827862  0.16827862  0.60000000  1
  Ta  Ta2  1  0.26827862  0.16827862  0.80000000  1
  Ta  Ta2  1  0.26827862  0.36827862  0.00000000  1
  Ta  Ta2  1  0.26827862  0.36827862  0.20000000  1
  Ta  Ta2  1  0.26827862  0.36827862  0.40000000  1
  Ta  Ta2  1  0.26827862  0.36827862  0.60000000  1
  Ta  Ta2  1  0.26827862  0.36827862  0.80000000  1
  Ta  Ta2  1  0.26827862  0.56827862  0.00000000  1
  Ta  Ta2  1  0.26827862  0.56827862  0.20000000  1
  Ta  Ta2  1  0.26827862  0.56827862  0.40000000  1
  Ta  Ta2  1  0.26827862  0.56827862  0.60000000  1
  Ta  Ta2  1  0.26827862  0.56827862  0.80000000  1
  Ta  Ta2  1  0.26827862  0.76827862  0.00000000  1
  Ta  Ta2  1  0.26827862  0.76827862  0.20000000  1
  Ta  Ta2  1  0.26827862  0.76827862  0.40000000  1
  Ta  Ta2  1  0.26827862  0.76827862  0.60000000  1
  Ta  Ta2  1  0.26827862  0.76827862  0.80000000  1
  Ta  Ta2  1  0.26827862  0.96827862  0.00000000  1
  Ta  Ta2  1  0.26827862  0.96827862  0.20000000  1
  Ta  Ta2  1  0.26827862  0.96827862  0.40000000  1
  Ta  Ta2  1  0.26827862  0.96827862  0.60000000  1
  Ta  Ta2  1  0.26827862  0.96827862  0.80000000  1
  Ta  Ta2  1  0.46827862  0.16827862  0.00000000  1
  Ta  Ta2  1  0.46827862  0.16827862  0.20000000  1
  Ta  Ta2  1  0.46827862  0.16827862  0.40000000  1
  Ta  Ta2  1  0.46827862  0.16827862  0.60000000  1
  Ta  Ta2  1  0.46827862  0.16827862  0.80000000  1
  Ta  Ta2  1  0.46827862  0.36827862  0.00000000  1
  Ta  Ta2  1  0.46827862  0.36827862  0.20000000  1
  Ta  Ta2  1  0.46827862  0.36827862  0.40000000  1
  Ta  Ta2  1  0.46827862  0.36827862  0.60000000  1
  Ta  Ta2  1  0.46827862  0.36827862  0.80000000  1
  Ta  Ta2  1  0.46827862  0.56827862  0.00000000  1
  Ta  Ta2  1  0.46827862  0.56827862  0.20000000  1
  Ta  Ta2  1  0.46827862  0.56827862  0.40000000  1
  Ta  Ta2  1  0.46827862  0.56827862  0.60000000  1
  Ta  Ta2  1  0.46827862  0.56827862  0.80000000  1
  Ta  Ta2  1  0.46827862  0.76827862  0.00000000  1
  Ta  Ta2  1  0.46827862  0.76827862  0.20000000  1
  Ta  Ta2  1  0.46827862  0.76827862  0.40000000  1
  Ta  Ta2  1  0.46827862  0.76827862  0.60000000  1
  Ta  Ta2  1  0.46827862  0.76827862  0.80000000  1
  Ta  Ta2  1  0.46827862  0.96827862  0.00000000  1
  Ta  Ta2  1  0.46827862  0.96827862  0.20000000  1
  Ta  Ta2  1  0.46827862  0.96827862  0.40000000  1
  Ta  Ta2  1  0.46827862  0.96827862  0.60000000  1
  Ta  Ta2  1  0.46827862  0.96827862  0.80000000  1
  Ta  Ta2  1  0.66827862  0.16827862  0.00000000  1
  Ta  Ta2  1  0.66827862  0.16827862  0.20000000  1
  Ta  Ta2  1  0.66827862  0.16827862  0.40000000  1
  Ta  Ta2  1  0.66827862  0.16827862  0.60000000  1
  Ta  Ta2  1  0.66827862  0.16827862  0.80000000  1
  Ta  Ta2  1  0.66827862  0.36827862  0.00000000  1
  Ta  Ta2  1  0.66827862  0.36827862  0.20000000  1
  Ta  Ta2  1  0.66827862  0.36827862  0.40000000  1
  Ta  Ta2  1  0.66827862  0.36827862  0.60000000  1
  Ta  Ta2  1  0.66827862  0.36827862  0.80000000  1
  Ta  Ta2  1  0.66827862  0.56827862  0.00000000  1
  Ta  Ta2  1  0.66827862  0.56827862  0.20000000  1
  Ta  Ta2  1  0.66827862  0.56827862  0.40000000  1
  Ta  Ta2  1  0.66827862  0.56827862  0.60000000  1
  Ta  Ta2  1  0.66827862  0.56827862  0.80000000  1
  Ta  Ta2  1  0.66827862  0.76827862  0.00000000  1
  Ta  Ta2  1  0.66827862  0.76827862  0.20000000  1
  Ta  Ta2  1  0.66827862  0.76827862  0.40000000  1
  Ta  Ta2  1  0.66827862  0.76827862  0.60000000  1
  Ta  Ta2  1  0.66827862  0.76827862  0.80000000  1
  Ta  Ta2  1  0.66827862  0.96827862  0.00000000  1
  Ta  Ta2  1  0.66827862  0.96827862  0.20000000  1
  Ta  Ta2  1  0.66827862  0.96827862  0.40000000  1
  Ta  Ta2  1  0.66827862  0.96827862  0.60000000  1
  Ta  Ta2  1  0.66827862  0.96827862  0.80000000  1
  Ta  Ta2  1  0.86827862  0.16827862  0.00000000  1
  Ta  Ta2  1  0.86827862  0.16827862  0.20000000  1
  Ta  Ta2  1  0.86827862  0.16827862  0.40000000  1
  Ta  Ta2  1  0.86827862  0.16827862  0.60000000  1
  Ta  Ta2  1  0.86827862  0.16827862  0.80000000  1
  Ta  Ta2  1  0.86827862  0.36827862  0.00000000  1
  Ta  Ta2  1  0.86827862  0.36827862  0.20000000  1
  Ta  Ta2  1  0.86827862  0.36827862  0.40000000  1
  Ta  Ta2  1  0.86827862  0.36827862  0.60000000  1
  Ta  Ta2  1  0.86827862  0.36827862  0.80000000  1
  Ta  Ta2  1  0.86827862  0.56827862  0.00000000  1
  Ta  Ta2  1  0.86827862  0.56827862  0.20000000  1
  Ta  Ta2  1  0.86827862  0.56827862  0.40000000  1
  Ta  Ta2  1  0.86827862  0.56827862  0.60000000  1
  Ta  Ta2  1  0.86827862  0.56827862  0.80000000  1
  Ta  Ta2  1  0.86827862  0.76827862  0.00000000  1
  Ta  Ta2  1  0.86827862  0.76827862  0.20000000  1
  Ta  Ta2  1  0.86827862  0.76827862  0.40000000  1
  Ta  Ta2  1  0.86827862  0.76827862  0.60000000  1
  Ta  Ta2  1  0.86827862  0.76827862  0.80000000  1
  Ta  Ta2  1  0.86827862  0.96827862  0.00000000  1
  Ta  Ta2  1  0.86827862  0.96827862  0.20000000  1
  Ta  Ta2  1  0.86827862  0.96827862  0.40000000  1
  Ta  Ta2  1  0.86827862  0.96827862  0.60000000  1
  Ta  Ta2  1  0.86827862  0.96827862  0.80000000  1
  Ta  Ta3  1  0.13172138  0.16827862  0.10000000  1
  Ta  Ta3  1  0.13172138  0.16827862  0.30000000  1
  Ta  Ta3  1  0.13172138  0.16827862  0.50000000  1
  Ta  Ta3  1  0.13172138  0.16827862  0.70000000  1
  Ta  Ta3  1  0.13172138  0.16827862  0.90000000  1
  Ta  Ta3  1  0.13172138  0.36827862  0.10000000  1
  Ta  Ta3  1  0.13172138  0.36827862  0.30000000  1
  Ta  Ta3  1  0.13172138  0.36827862  0.50000000  1
  Ta  Ta3  1  0.13172138  0.36827862  0.70000000  1
  Ta  Ta3  1  0.13172138  0.36827862  0.90000000  1
  Ta  Ta3  1  0.13172138  0.56827862  0.10000000  1
  Ta  Ta3  1  0.13172138  0.56827862  0.30000000  1
  Ta  Ta3  1  0.13172138  0.56827862  0.50000000  1
  Ta  Ta3  1  0.13172138  0.56827862  0.70000000  1
  Ta  Ta3  1  0.13172138  0.56827862  0.90000000  1
  Ta  Ta3  1  0.13172138  0.76827862  0.10000000  1
  Ta  Ta3  1  0.13172138  0.76827862  0.30000000  1
  Ta  Ta3  1  0.13172138  0.76827862  0.50000000  1
  Ta  Ta3  1  0.13172138  0.76827862  0.70000000  1
  Ta  Ta3  1  0.13172138  0.76827862  0.90000000  1
  Ta  Ta3  1  0.13172138  0.96827862  0.10000000  1
  Ta  Ta3  1  0.13172138  0.96827862  0.30000000  1
  Ta  Ta3  1  0.13172138  0.96827862  0.50000000  1
  Ta  Ta3  1  0.13172138  0.96827862  0.70000000  1
  Ta  Ta3  1  0.13172138  0.96827862  0.90000000  1
  Ta  Ta3  1  0.33172138  0.16827862  0.10000000  1
  Ta  Ta3  1  0.33172138  0.16827862  0.30000000  1
  Ta  Ta3  1  0.33172138  0.16827862  0.50000000  1
  Ta  Ta3  1  0.33172138  0.16827862  0.70000000  1
  Ta  Ta3  1  0.33172138  0.16827862  0.90000000  1
  Ta  Ta3  1  0.33172138  0.36827862  0.10000000  1
  Ta  Ta3  1  0.33172138  0.36827862  0.30000000  1
  Ta  Ta3  1  0.33172138  0.36827862  0.50000000  1
  Ta  Ta3  1  0.33172138  0.36827862  0.70000000  1
  Ta  Ta3  1  0.33172138  0.36827862  0.90000000  1
  Ta  Ta3  1  0.33172138  0.56827862  0.10000000  1
  Ta  Ta3  1  0.33172138  0.56827862  0.30000000  1
  Ta  Ta3  1  0.33172138  0.56827862  0.50000000  1
  Ta  Ta3  1  0.33172138  0.56827862  0.70000000  1
  Ta  Ta3  1  0.33172138  0.56827862  0.90000000  1
  Ta  Ta3  1  0.33172138  0.76827862  0.10000000  1
  Ta  Ta3  1  0.33172138  0.76827862  0.30000000  1
  Ta  Ta3  1  0.33172138  0.76827862  0.50000000  1
  Ta  Ta3  1  0.33172138  0.76827862  0.70000000  1
  Ta  Ta3  1  0.33172138  0.76827862  0.90000000  1
  Ta  Ta3  1  0.33172138  0.96827862  0.10000000  1
  Ta  Ta3  1  0.33172138  0.96827862  0.30000000  1
  Ta  Ta3  1  0.33172138  0.96827862  0.50000000  1
  Ta  Ta3  1  0.33172138  0.96827862  0.70000000  1
  Ta  Ta3  1  0.33172138  0.96827862  0.90000000  1
  Ta  Ta3  1  0.53172138  0.16827862  0.10000000  1
  Ta  Ta3  1  0.53172138  0.16827862  0.30000000  1
  Ta  Ta3  1  0.53172138  0.16827862  0.50000000  1
  Ta  Ta3  1  0.53172138  0.16827862  0.70000000  1
  Ta  Ta3  1  0.53172138  0.16827862  0.90000000  1
  Ta  Ta3  1  0.53172138  0.36827862  0.10000000  1
  Ta  Ta3  1  0.53172138  0.36827862  0.30000000  1
  Ta  Ta3  1  0.53172138  0.36827862  0.50000000  1
  Ta  Ta3  1  0.53172138  0.36827862  0.70000000  1
  Ta  Ta3  1  0.53172138  0.36827862  0.90000000  1
  Ta  Ta3  1  0.53172138  0.56827862  0.10000000  1
  Ta  Ta3  1  0.53172138  0.56827862  0.30000000  1
  Ta  Ta3  1  0.53172138  0.56827862  0.50000000  1
  Ta  Ta3  1  0.53172138  0.56827862  0.70000000  1
  Ta  Ta3  1  0.53172138  0.56827862  0.90000000  1
  Ta  Ta3  1  0.53172138  0.76827862  0.10000000  1
  Ta  Ta3  1  0.53172138  0.76827862  0.30000000  1
  Ta  Ta3  1  0.53172138  0.76827862  0.50000000  1
  Ta  Ta3  1  0.53172138  0.76827862  0.70000000  1
  Ta  Ta3  1  0.53172138  0.76827862  0.90000000  1
  Ta  Ta3  1  0.53172138  0.96827862  0.10000000  1
  Ta  Ta3  1  0.53172138  0.96827862  0.30000000  1
  Ta  Ta3  1  0.53172138  0.96827862  0.50000000  1
  Ta  Ta3  1  0.53172138  0.96827862  0.70000000  1
  Ta  Ta3  1  0.53172138  0.96827862  0.90000000  1
  Ta  Ta3  1  0.73172138  0.16827862  0.10000000  1
  Ta  Ta3  1  0.73172138  0.16827862  0.30000000  1
  Ta  Ta3  1  0.73172138  0.16827862  0.50000000  1
  Ta  Ta3  1  0.73172138  0.16827862  0.70000000  1
  Ta  Ta3  1  0.73172138  0.16827862  0.90000000  1
  Ta  Ta3  1  0.73172138  0.36827862  0.10000000  1
  Ta  Ta3  1  0.73172138  0.36827862  0.30000000  1
  Ta  Ta3  1  0.73172138  0.36827862  0.50000000  1
  Ta  Ta3  1  0.73172138  0.36827862  0.70000000  1
  Ta  Ta3  1  0.73172138  0.36827862  0.90000000  1
  Ta  Ta3  1  0.73172138  0.56827862  0.10000000  1
  Ta  Ta3  1  0.73172138  0.56827862  0.30000000  1
  Ta  Ta3  1  0.73172138  0.56827862  0.50000000  1
  Ta  Ta3  1  0.73172138  0.56827862  0.70000000  1
  Ta  Ta3  1  0.73172138  0.56827862  0.90000000  1
  Ta  Ta3  1  0.73172138  0.76827862  0.10000000  1
  Ta  Ta3  1  0.73172138  0.76827862  0.30000000  1
  Ta  Ta3  1  0.73172138  0.76827862  0.50000000  1
  Ta  Ta3  1  0.73172138  0.76827862  0.70000000  1
  Ta  Ta3  1  0.73172138  0.76827862  0.90000000  1
  Ta  Ta3  1  0.73172138  0.96827862  0.10000000  1
  Ta  Ta3  1  0.73172138  0.96827862  0.30000000  1
  Ta  Ta3  1  0.73172138  0.96827862  0.50000000  1
  Ta  Ta3  1  0.73172138  0.96827862  0.70000000  1
  Ta  Ta3  1  0.73172138  0.96827862  0.90000000  1
  Ta  Ta3  1  0.93172138  0.16827862  0.10000000  1
  Ta  Ta3  1  0.93172138  0.16827862  0.30000000  1
  Ta  Ta3  1  0.93172138  0.16827862  0.50000000  1
  Ta  Ta3  1  0.93172138  0.16827862  0.70000000  1
  Ta  Ta3  1  0.93172138  0.16827862  0.90000000  1
  Ta  Ta3  1  0.93172138  0.36827862  0.10000000  1
  Ta  Ta3  1  0.93172138  0.36827862  0.30000000  1
  Ta  Ta3  1  0.93172138  0.36827862  0.50000000  1
  Ta  Ta3  1  0.93172138  0.36827862  0.70000000  1
  Ta  Ta3  1  0.93172138  0.36827862  0.90000000  1
  Ta  Ta3  1  0.93172138  0.56827862  0.10000000  1
  Ta  Ta3  1  0.93172138  0.56827862  0.30000000  1
  Ta  Ta3  1  0.93172138  0.56827862  0.50000000  1
  Ta  Ta3  1  0.93172138  0.56827862  0.70000000  1
  Ta  Ta3  1  0.93172138  0.56827862  0.90000000  1
  Ta  Ta3  1  0.93172138  0.76827862  0.10000000  1
  Ta  Ta3  1  0.93172138  0.76827862  0.30000000  1
  Ta  Ta3  1  0.93172138  0.76827862  0.50000000  1
  Ta  Ta3  1  0.93172138  0.76827862  0.70000000  1
  Ta  Ta3  1  0.93172138  0.76827862  0.90000000  1
  Ta  Ta3  1  0.93172138  0.96827862  0.10000000  1
  Ta  Ta3  1  0.93172138  0.96827862  0.30000000  1
  Ta  Ta3  1  0.93172138  0.96827862  0.50000000  1
  Ta  Ta3  1  0.93172138  0.96827862  0.70000000  1
  Ta  Ta3  1  0.93172138  0.96827862  0.90000000  1
  Ta  Ta4  1  0.16827862  0.13172138  0.00000000  1
  Ta  Ta4  1  0.16827862  0.13172138  0.20000000  1
  Ta  Ta4  1  0.16827862  0.13172138  0.40000000  1
  Ta  Ta4  1  0.16827862  0.13172138  0.60000000  1
  Ta  Ta4  1  0.16827862  0.13172138  0.80000000  1
  Ta  Ta4  1  0.16827862  0.33172138  0.00000000  1
  Ta  Ta4  1  0.16827862  0.33172138  0.20000000  1
  Ta  Ta4  1  0.16827862  0.33172138  0.40000000  1
  Ta  Ta4  1  0.16827862  0.33172138  0.60000000  1
  Ta  Ta4  1  0.16827862  0.33172138  0.80000000  1
  Ta  Ta4  1  0.16827862  0.53172138  0.00000000  1
  Ta  Ta4  1  0.16827862  0.53172138  0.20000000  1
  Ta  Ta4  1  0.16827862  0.53172138  0.40000000  1
  Ta  Ta4  1  0.16827862  0.53172138  0.60000000  1
  Ta  Ta4  1  0.16827862  0.53172138  0.80000000  1
  Ta  Ta4  1  0.16827862  0.73172138  0.00000000  1
  Ta  Ta4  1  0.16827862  0.73172138  0.20000000  1
  Ta  Ta4  1  0.16827862  0.73172138  0.40000000  1
  Ta  Ta4  1  0.16827862  0.73172138  0.60000000  1
  Ta  Ta4  1  0.16827862  0.73172138  0.80000000  1
  Ta  Ta4  1  0.16827862  0.93172138  0.00000000  1
  Ta  Ta4  1  0.16827862  0.93172138  0.20000000  1
  Ta  Ta4  1  0.16827862  0.93172138  0.40000000  1
  Ta  Ta4  1  0.16827862  0.93172138  0.60000000  1
  Ta  Ta4  1  0.16827862  0.93172138  0.80000000  1
  Ta  Ta4  1  0.36827862  0.13172138  0.00000000  1
  Ta  Ta4  1  0.36827862  0.13172138  0.20000000  1
  Ta  Ta4  1  0.36827862  0.13172138  0.40000000  1
  Ta  Ta4  1  0.36827862  0.13172138  0.60000000  1
  Ta  Ta4  1  0.36827862  0.13172138  0.80000000  1
  Ta  Ta4  1  0.36827862  0.33172138  0.00000000  1
  Ta  Ta4  1  0.36827862  0.33172138  0.20000000  1
  Ta  Ta4  1  0.36827862  0.33172138  0.40000000  1
  Ta  Ta4  1  0.36827862  0.33172138  0.60000000  1
  Ta  Ta4  1  0.36827862  0.33172138  0.80000000  1
  Ta  Ta4  1  0.36827862  0.53172138  0.00000000  1
  Ta  Ta4  1  0.36827862  0.53172138  0.20000000  1
  Ta  Ta4  1  0.36827862  0.53172138  0.40000000  1
  Ta  Ta4  1  0.36827862  0.53172138  0.60000000  1
  Ta  Ta4  1  0.36827862  0.53172138  0.80000000  1
  Ta  Ta4  1  0.36827862  0.73172138  0.00000000  1
  Ta  Ta4  1  0.36827862  0.73172138  0.20000000  1
  Ta  Ta4  1  0.36827862  0.73172138  0.40000000  1
  Ta  Ta4  1  0.36827862  0.73172138  0.60000000  1
  Ta  Ta4  1  0.36827862  0.73172138  0.80000000  1
  Ta  Ta4  1  0.36827862  0.93172138  0.00000000  1
  Ta  Ta4  1  0.36827862  0.93172138  0.20000000  1
  Ta  Ta4  1  0.36827862  0.93172138  0.40000000  1
  Ta  Ta4  1  0.36827862  0.93172138  0.60000000  1
  Ta  Ta4  1  0.36827862  0.93172138  0.80000000  1
  Ta  Ta4  1  0.56827862  0.13172138  0.00000000  1
  Ta  Ta4  1  0.56827862  0.13172138  0.20000000  1
  Ta  Ta4  1  0.56827862  0.13172138  0.40000000  1
  Ta  Ta4  1  0.56827862  0.13172138  0.60000000  1
  Ta  Ta4  1  0.56827862  0.13172138  0.80000000  1
  Ta  Ta4  1  0.56827862  0.33172138  0.00000000  1
  Ta  Ta4  1  0.56827862  0.33172138  0.20000000  1
  Ta  Ta4  1  0.56827862  0.33172138  0.40000000  1
  Ta  Ta4  1  0.56827862  0.33172138  0.60000000  1
  Ta  Ta4  1  0.56827862  0.33172138  0.80000000  1
  Ta  Ta4  1  0.56827862  0.53172138  0.00000000  1
  Ta  Ta4  1  0.56827862  0.53172138  0.20000000  1
  Ta  Ta4  1  0.56827862  0.53172138  0.40000000  1
  Ta  Ta4  1  0.56827862  0.53172138  0.60000000  1
  Ta  Ta4  1  0.56827862  0.53172138  0.80000000  1
  Ta  Ta4  1  0.56827862  0.73172138  0.00000000  1
  Ta  Ta4  1  0.56827862  0.73172138  0.20000000  1
  Ta  Ta4  1  0.56827862  0.73172138  0.40000000  1
  Ta  Ta4  1  0.56827862  0.73172138  0.60000000  1
  Ta  Ta4  1  0.56827862  0.73172138  0.80000000  1
  Ta  Ta4  1  0.56827862  0.93172138  0.00000000  1
  Ta  Ta4  1  0.56827862  0.93172138  0.20000000  1
  Ta  Ta4  1  0.56827862  0.93172138  0.40000000  1
  Ta  Ta4  1  0.56827862  0.93172138  0.60000000  1
  Ta  Ta4  1  0.56827862  0.93172138  0.80000000  1
  Ta  Ta4  1  0.76827862  0.13172138  0.00000000  1
  Ta  Ta4  1  0.76827862  0.13172138  0.20000000  1
  Ta  Ta4  1  0.76827862  0.13172138  0.40000000  1
  Ta  Ta4  1  0.76827862  0.13172138  0.60000000  1
  Ta  Ta4  1  0.76827862  0.13172138  0.80000000  1
  Ta  Ta4  1  0.76827862  0.33172138  0.00000000  1
  Ta  Ta4  1  0.76827862  0.33172138  0.20000000  1
  Ta  Ta4  1  0.76827862  0.33172138  0.40000000  1
  Ta  Ta4  1  0.76827862  0.33172138  0.60000000  1
  Ta  Ta4  1  0.76827862  0.33172138  0.80000000  1
  Ta  Ta4  1  0.76827862  0.53172138  0.00000000  1
  Ta  Ta4  1  0.76827862  0.53172138  0.20000000  1
  Ta  Ta4  1  0.76827862  0.53172138  0.40000000  1
  Ta  Ta4  1  0.76827862  0.53172138  0.60000000  1
  Ta  Ta4  1  0.76827862  0.53172138  0.80000000  1
  Ta  Ta4  1  0.76827862  0.73172138  0.00000000  1
  Ta  Ta4  1  0.76827862  0.73172138  0.20000000  1
  Ta  Ta4  1  0.76827862  0.73172138  0.40000000  1
  Ta  Ta4  1  0.76827862  0.73172138  0.60000000  1
  Ta  Ta4  1  0.76827862  0.73172138  0.80000000  1
  Ta  Ta4  1  0.76827862  0.93172138  0.00000000  1
  Ta  Ta4  1  0.76827862  0.93172138  0.20000000  1
  Ta  Ta4  1  0.76827862  0.93172138  0.40000000  1
  Ta  Ta4  1  0.76827862  0.93172138  0.60000000  1
  Ta  Ta4  1  0.76827862  0.93172138  0.80000000  1
  Ta  Ta4  1  0.96827862  0.13172138  0.00000000  1
  Ta  Ta4  1  0.96827862  0.13172138  0.20000000  1
  Ta  Ta4  1  0.96827862  0.13172138  0.40000000  1
  Ta  Ta4  1  0.96827862  0.13172138  0.60000000  1
  Ta  Ta4  1  0.96827862  0.13172138  0.80000000  1
  Ta  Ta4  1  0.96827862  0.33172138  0.00000000  1
  Ta  Ta4  1  0.96827862  0.33172138  0.20000000  1
  Ta  Ta4  1  0.96827862  0.33172138  0.40000000  1
  Ta  Ta4  1  0.96827862  0.33172138  0.60000000  1
  Ta  Ta4  1  0.96827862  0.33172138  0.80000000  1
  Ta  Ta4  1  0.96827862  0.53172138  0.00000000  1
  Ta  Ta4  1  0.96827862  0.53172138  0.20000000  1
  Ta  Ta4  1  0.96827862  0.53172138  0.40000000  1
  Ta  Ta4  1  0.96827862  0.53172138  0.60000000  1
  Ta  Ta4  1  0.96827862  0.53172138  0.80000000  1
  Ta  Ta4  1  0.96827862  0.73172138  0.00000000  1
  Ta  Ta4  1  0.96827862  0.73172138  0.20000000  1
  Ta  Ta4  1  0.96827862  0.73172138  0.40000000  1
  Ta  Ta4  1  0.96827862  0.73172138  0.60000000  1
  Ta  Ta4  1  0.96827862  0.73172138  0.80000000  1
  Ta  Ta4  1  0.96827862  0.93172138  0.00000000  1
  Ta  Ta4  1  0.96827862  0.93172138  0.20000000  1
  Ta  Ta4  1  0.96827862  0.93172138  0.40000000  1
  Ta  Ta4  1  0.96827862  0.93172138  0.60000000  1
  Ta  Ta4  1  0.96827862  0.93172138  0.80000000  1
  Ta  Ta5  1  0.03172138  0.13172138  0.10000000  1
  Ta  Ta5  1  0.03172138  0.13172138  0.30000000  1
  Ta  Ta5  1  0.03172138  0.13172138  0.50000000  1
  Ta  Ta5  1  0.03172138  0.13172138  0.70000000  1
  Ta  Ta5  1  0.03172138  0.13172138  0.90000000  1
  Ta  Ta5  1  0.03172138  0.33172138  0.10000000  1
  Ta  Ta5  1  0.03172138  0.33172138  0.30000000  1
  Ta  Ta5  1  0.03172138  0.33172138  0.50000000  1
  Ta  Ta5  1  0.03172138  0.33172138  0.70000000  1
  Ta  Ta5  1  0.03172138  0.33172138  0.90000000  1
  Ta  Ta5  1  0.03172138  0.53172138  0.10000000  1
  Ta  Ta5  1  0.03172138  0.53172138  0.30000000  1
  Ta  Ta5  1  0.03172138  0.53172138  0.50000000  1
  Ta  Ta5  1  0.03172138  0.53172138  0.70000000  1
  Ta  Ta5  1  0.03172138  0.53172138  0.90000000  1
  Ta  Ta5  1  0.03172138  0.73172138  0.10000000  1
  Ta  Ta5  1  0.03172138  0.73172138  0.30000000  1
  Ta  Ta5  1  0.03172138  0.73172138  0.50000000  1
  Ta  Ta5  1  0.03172138  0.73172138  0.70000000  1
  Ta  Ta5  1  0.03172138  0.73172138  0.90000000  1
  Ta  Ta5  1  0.03172138  0.93172138  0.10000000  1
  Ta  Ta5  1  0.03172138  0.93172138  0.30000000  1
  Ta  Ta5  1  0.03172138  0.93172138  0.50000000  1
  Ta  Ta5  1  0.03172138  0.93172138  0.70000000  1
  Ta  Ta5  1  0.03172138  0.93172138  0.90000000  1
  Ta  Ta5  1  0.23172138  0.13172138  0.10000000  1
  Ta  Ta5  1  0.23172138  0.13172138  0.30000000  1
  Ta  Ta5  1  0.23172138  0.13172138  0.50000000  1
  Ta  Ta5  1  0.23172138  0.13172138  0.70000000  1
  Ta  Ta5  1  0.23172138  0.13172138  0.90000000  1
  Ta  Ta5  1  0.23172138  0.33172138  0.10000000  1
  Ta  Ta5  1  0.23172138  0.33172138  0.30000000  1
  Ta  Ta5  1  0.23172138  0.33172138  0.50000000  1
  Ta  Ta5  1  0.23172138  0.33172138  0.70000000  1
  Ta  Ta5  1  0.23172138  0.33172138  0.90000000  1
  Ta  Ta5  1  0.23172138  0.53172138  0.10000000  1
  Ta  Ta5  1  0.23172138  0.53172138  0.30000000  1
  Ta  Ta5  1  0.23172138  0.53172138  0.50000000  1
  Ta  Ta5  1  0.23172138  0.53172138  0.70000000  1
  Ta  Ta5  1  0.23172138  0.53172138  0.90000000  1
  Ta  Ta5  1  0.23172138  0.73172138  0.10000000  1
  Ta  Ta5  1  0.23172138  0.73172138  0.30000000  1
  Ta  Ta5  1  0.23172138  0.73172138  0.50000000  1
  Ta  Ta5  1  0.23172138  0.73172138  0.70000000  1
  Ta  Ta5  1  0.23172138  0.73172138  0.90000000  1
  Ta  Ta5  1  0.23172138  0.93172138  0.10000000  1
  Ta  Ta5  1  0.23172138  0.93172138  0.30000000  1
  Ta  Ta5  1  0.23172138  0.93172138  0.50000000  1
  Ta  Ta5  1  0.23172138  0.93172138  0.70000000  1
  Ta  Ta5  1  0.23172138  0.93172138  0.90000000  1
  Ta  Ta5  1  0.43172138  0.13172138  0.10000000  1
  Ta  Ta5  1  0.43172138  0.13172138  0.30000000  1
  Ta  Ta5  1  0.43172138  0.13172138  0.50000000  1
  Ta  Ta5  1  0.43172138  0.13172138  0.70000000  1
  Ta  Ta5  1  0.43172138  0.13172138  0.90000000  1
  Ta  Ta5  1  0.43172138  0.33172138  0.10000000  1
  Ta  Ta5  1  0.43172138  0.33172138  0.30000000  1
  Ta  Ta5  1  0.43172138  0.33172138  0.50000000  1
  Ta  Ta5  1  0.43172138  0.33172138  0.70000000  1
  Ta  Ta5  1  0.43172138  0.33172138  0.90000000  1
  Ta  Ta5  1  0.43172138  0.53172138  0.10000000  1
  Ta  Ta5  1  0.43172138  0.53172138  0.30000000  1
  Ta  Ta5  1  0.43172138  0.53172138  0.50000000  1
  Ta  Ta5  1  0.43172138  0.53172138  0.70000000  1
  Ta  Ta5  1  0.43172138  0.53172138  0.90000000  1
  Ta  Ta5  1  0.43172138  0.73172138  0.10000000  1
  Ta  Ta5  1  0.43172138  0.73172138  0.30000000  1
  Ta  Ta5  1  0.43172138  0.73172138  0.50000000  1
  Ta  Ta5  1  0.43172138  0.73172138  0.70000000  1
  Ta  Ta5  1  0.43172138  0.73172138  0.90000000  1
  Ta  Ta5  1  0.43172138  0.93172138  0.10000000  1
  Ta  Ta5  1  0.43172138  0.93172138  0.30000000  1
  Ta  Ta5  1  0.43172138  0.93172138  0.50000000  1
  Ta  Ta5  1  0.43172138  0.93172138  0.70000000  1
  Ta  Ta5  1  0.43172138  0.93172138  0.90000000  1
  Ta  Ta5  1  0.63172138  0.13172138  0.10000000  1
  Ta  Ta5  1  0.63172138  0.13172138  0.30000000  1
  Ta  Ta5  1  0.63172138  0.13172138  0.50000000  1
  Ta  Ta5  1  0.63172138  0.13172138  0.70000000  1
  Ta  Ta5  1  0.63172138  0.13172138  0.90000000  1
  Ta  Ta5  1  0.63172138  0.33172138  0.10000000  1
  Ta  Ta5  1  0.63172138  0.33172138  0.30000000  1
  Ta  Ta5  1  0.63172138  0.33172138  0.50000000  1
  Ta  Ta5  1  0.63172138  0.33172138  0.70000000  1
  Ta  Ta5  1  0.63172138  0.33172138  0.90000000  1
  Ta  Ta5  1  0.63172138  0.53172138  0.10000000  1
  Ta  Ta5  1  0.63172138  0.53172138  0.30000000  1
  Ta  Ta5  1  0.63172138  0.53172138  0.50000000  1
  Ta  Ta5  1  0.63172138  0.53172138  0.70000000  1
  Ta  Ta5  1  0.63172138  0.53172138  0.90000000  1
  Ta  Ta5  1  0.63172138  0.73172138  0.10000000  1
  Ta  Ta5  1  0.63172138  0.73172138  0.30000000  1
  Ta  Ta5  1  0.63172138  0.73172138  0.50000000  1
  Ta  Ta5  1  0.63172138  0.73172138  0.70000000  1
  Ta  Ta5  1  0.63172138  0.73172138  0.90000000  1
  Ta  Ta5  1  0.63172138  0.93172138  0.10000000  1
  Ta  Ta5  1  0.63172138  0.93172138  0.30000000  1
  Ta  Ta5  1  0.63172138  0.93172138  0.50000000  1
  Ta  Ta5  1  0.63172138  0.93172138  0.70000000  1
  Ta  Ta5  1  0.63172138  0.93172138  0.90000000  1
  Ta  Ta5  1  0.83172138  0.13172138  0.10000000  1
  Ta  Ta5  1  0.83172138  0.13172138  0.30000000  1
  Ta  Ta5  1  0.83172138  0.13172138  0.50000000  1
  Ta  Ta5  1  0.83172138  0.13172138  0.70000000  1
  Ta  Ta5  1  0.83172138  0.13172138  0.90000000  1
  Ta  Ta5  1  0.83172138  0.33172138  0.10000000  1
  Ta  Ta5  1  0.83172138  0.33172138  0.30000000  1
  Ta  Ta5  1  0.83172138  0.33172138  0.50000000  1
  Ta  Ta5  1  0.83172138  0.33172138  0.70000000  1
  Ta  Ta5  1  0.83172138  0.33172138  0.90000000  1
  Ta  Ta5  1  0.83172138  0.53172138  0.10000000  1
  Ta  Ta5  1  0.83172138  0.53172138  0.30000000  1
  Ta  Ta5  1  0.83172138  0.53172138  0.50000000  1
  Ta  Ta5  1  0.83172138  0.53172138  0.70000000  1
  Ta  Ta5  1  0.83172138  0.53172138  0.90000000  1
  Ta  Ta5  1  0.83172138  0.73172138  0.10000000  1
  Ta  Ta5  1  0.83172138  0.73172138  0.30000000  1
  Ta  Ta5  1  0.83172138  0.73172138  0.50000000  1
  Ta  Ta5  1  0.83172138  0.73172138  0.70000000  1
  Ta  Ta5  1  0.83172138  0.73172138  0.90000000  1
  Ta  Ta5  1  0.83172138  0.93172138  0.10000000  1
  Ta  Ta5  1  0.83172138  0.93172138  0.30000000  1
  Ta  Ta5  1  0.83172138  0.93172138  0.50000000  1
  Ta  Ta5  1  0.83172138  0.93172138  0.70000000  1
  Ta  Ta5  1  0.83172138  0.93172138  0.90000000  1
  Ta  Ta6  1  0.16827862  0.06827862  0.10000000  1
  Ta  Ta6  1  0.16827862  0.06827862  0.30000000  1
  Ta  Ta6  1  0.16827862  0.06827862  0.50000000  1
  Ta  Ta6  1  0.16827862  0.06827862  0.70000000  1
  Ta  Ta6  1  0.16827862  0.06827862  0.90000000  1
  Ta  Ta6  1  0.16827862  0.26827862  0.10000000  1
  Ta  Ta6  1  0.16827862  0.26827862  0.30000000  1
  Ta  Ta6  1  0.16827862  0.26827862  0.50000000  1
  Ta  Ta6  1  0.16827862  0.26827862  0.70000000  1
  Ta  Ta6  1  0.16827862  0.26827862  0.90000000  1
  Ta  Ta6  1  0.16827862  0.46827862  0.10000000  1
  Ta  Ta6  1  0.16827862  0.46827862  0.30000000  1
  Ta  Ta6  1  0.16827862  0.46827862  0.50000000  1
  Ta  Ta6  1  0.16827862  0.46827862  0.70000000  1
  Ta  Ta6  1  0.16827862  0.46827862  0.90000000  1
  Ta  Ta6  1  0.16827862  0.66827862  0.10000000  1
  Ta  Ta6  1  0.16827862  0.66827862  0.30000000  1
  Ta  Ta6  1  0.16827862  0.66827862  0.50000000  1
  Ta  Ta6  1  0.16827862  0.66827862  0.70000000  1
  Ta  Ta6  1  0.16827862  0.66827862  0.90000000  1
  Ta  Ta6  1  0.16827862  0.86827862  0.10000000  1
  Ta  Ta6  1  0.16827862  0.86827862  0.30000000  1
  Ta  Ta6  1  0.16827862  0.86827862  0.50000000  1
  Ta  Ta6  1  0.16827862  0.86827862  0.70000000  1
  Ta  Ta6  1  0.16827862  0.86827862  0.90000000  1
  Ta  Ta6  1  0.36827862  0.06827862  0.10000000  1
  Ta  Ta6  1  0.36827862  0.06827862  0.30000000  1
  Ta  Ta6  1  0.36827862  0.06827862  0.50000000  1
  Ta  Ta6  1  0.36827862  0.06827862  0.70000000  1
  Ta  Ta6  1  0.36827862  0.06827862  0.90000000  1
  Ta  Ta6  1  0.36827862  0.26827862  0.10000000  1
  Ta  Ta6  1  0.36827862  0.26827862  0.30000000  1
  Ta  Ta6  1  0.36827862  0.26827862  0.50000000  1
  Ta  Ta6  1  0.36827862  0.26827862  0.70000000  1
  Ta  Ta6  1  0.36827862  0.26827862  0.90000000  1
  Ta  Ta6  1  0.36827862  0.46827862  0.10000000  1
  Ta  Ta6  1  0.36827862  0.46827862  0.30000000  1
  Ta  Ta6  1  0.36827862  0.46827862  0.50000000  1
  Ta  Ta6  1  0.36827862  0.46827862  0.70000000  1
  Ta  Ta6  1  0.36827862  0.46827862  0.90000000  1
  Ta  Ta6  1  0.36827862  0.66827862  0.10000000  1
  Ta  Ta6  1  0.36827862  0.66827862  0.30000000  1
  Ta  Ta6  1  0.36827862  0.66827862  0.50000000  1
  Ta  Ta6  1  0.36827862  0.66827862  0.70000000  1
  Ta  Ta6  1  0.36827862  0.66827862  0.90000000  1
  Ta  Ta6  1  0.36827862  0.86827862  0.10000000  1
  Ta  Ta6  1  0.36827862  0.86827862  0.30000000  1
  Ta  Ta6  1  0.36827862  0.86827862  0.50000000  1
  Ta  Ta6  1  0.36827862  0.86827862  0.70000000  1
  Ta  Ta6  1  0.36827862  0.86827862  0.90000000  1
  Ta  Ta6  1  0.56827862  0.06827862  0.10000000  1
  Ta  Ta6  1  0.56827862  0.06827862  0.30000000  1
  Ta  Ta6  1  0.56827862  0.06827862  0.50000000  1
  Ta  Ta6  1  0.56827862  0.06827862  0.70000000  1
  Ta  Ta6  1  0.56827862  0.06827862  0.90000000  1
  Ta  Ta6  1  0.56827862  0.26827862  0.10000000  1
  Ta  Ta6  1  0.56827862  0.26827862  0.30000000  1
  Ta  Ta6  1  0.56827862  0.26827862  0.50000000  1
  Ta  Ta6  1  0.56827862  0.26827862  0.70000000  1
  Ta  Ta6  1  0.56827862  0.26827862  0.90000000  1
  Ta  Ta6  1  0.56827862  0.46827862  0.10000000  1
  Ta  Ta6  1  0.56827862  0.46827862  0.30000000  1
  Ta  Ta6  1  0.56827862  0.46827862  0.50000000  1
  Ta  Ta6  1  0.56827862  0.46827862  0.70000000  1
  Ta  Ta6  1  0.56827862  0.46827862  0.90000000  1
  Ta  Ta6  1  0.56827862  0.66827862  0.10000000  1
  Ta  Ta6  1  0.56827862  0.66827862  0.30000000  1
  Ta  Ta6  1  0.56827862  0.66827862  0.50000000  1
  Ta  Ta6  1  0.56827862  0.66827862  0.70000000  1
  Ta  Ta6  1  0.56827862  0.66827862  0.90000000  1
  Ta  Ta6  1  0.56827862  0.86827862  0.10000000  1
  Ta  Ta6  1  0.56827862  0.86827862  0.30000000  1
  Ta  Ta6  1  0.56827862  0.86827862  0.50000000  1
  Ta  Ta6  1  0.56827862  0.86827862  0.70000000  1
  Ta  Ta6  1  0.56827862  0.86827862  0.90000000  1
  Ta  Ta6  1  0.76827862  0.06827862  0.10000000  1
  Ta  Ta6  1  0.76827862  0.06827862  0.30000000  1
  Ta  Ta6  1  0.76827862  0.06827862  0.50000000  1
  Ta  Ta6  1  0.76827862  0.06827862  0.70000000  1
  Ta  Ta6  1  0.76827862  0.06827862  0.90000000  1
  Ta  Ta6  1  0.76827862  0.26827862  0.10000000  1
  Ta  Ta6  1  0.76827862  0.26827862  0.30000000  1
  Ta  Ta6  1  0.76827862  0.26827862  0.50000000  1
  Ta  Ta6  1  0.76827862  0.26827862  0.70000000  1
  Ta  Ta6  1  0.76827862  0.26827862  0.90000000  1
  Ta  Ta6  1  0.76827862  0.46827862  0.10000000  1
  Ta  Ta6  1  0.76827862  0.46827862  0.30000000  1
  Ta  Ta6  1  0.76827862  0.46827862  0.50000000  1
  Ta  Ta6  1  0.76827862  0.46827862  0.70000000  1
  Ta  Ta6  1  0.76827862  0.46827862  0.90000000  1
  Ta  Ta6  1  0.76827862  0.66827862  0.10000000  1
  Ta  Ta6  1  0.76827862  0.66827862  0.30000000  1
  Ta  Ta6  1  0.76827862  0.66827862  0.50000000  1
  Ta  Ta6  1  0.76827862  0.66827862  0.70000000  1
  Ta  Ta6  1  0.76827862  0.66827862  0.90000000  1
  Ta  Ta6  1  0.76827862  0.86827862  0.10000000  1
  Ta  Ta6  1  0.76827862  0.86827862  0.30000000  1
  Ta  Ta6  1  0.76827862  0.86827862  0.50000000  1
  Ta  Ta6  1  0.76827862  0.86827862  0.70000000  1
  Ta  Ta6  1  0.76827862  0.86827862  0.90000000  1
  Ta  Ta6  1  0.96827862  0.06827862  0.10000000  1
  Ta  Ta6  1  0.96827862  0.06827862  0.30000000  1
  Ta  Ta6  1  0.96827862  0.06827862  0.50000000  1
  Ta  Ta6  1  0.96827862  0.06827862  0.70000000  1
  Ta  Ta6  1  0.96827862  0.06827862  0.90000000  1
  Ta  Ta6  1  0.96827862  0.26827862  0.10000000  1
  Ta  Ta6  1  0.96827862  0.26827862  0.30000000  1
  Ta  Ta6  1  0.96827862  0.26827862  0.50000000  1
  Ta  Ta6  1  0.96827862  0.26827862  0.70000000  1
  Ta  Ta6  1  0.96827862  0.26827862  0.90000000  1
  Ta  Ta6  1  0.96827862  0.46827862  0.10000000  1
  Ta  Ta6  1  0.96827862  0.46827862  0.30000000  1
  Ta  Ta6  1  0.96827862  0.46827862  0.50000000  1
  Ta  Ta6  1  0.96827862  0.46827862  0.70000000  1
  Ta  Ta6  1  0.96827862  0.46827862  0.90000000  1
  Ta  Ta6  1  0.96827862  0.66827862  0.10000000  1
  Ta  Ta6  1  0.96827862  0.66827862  0.30000000  1
  Ta  Ta6  1  0.96827862  0.66827862  0.50000000  1
  Ta  Ta6  1  0.96827862  0.66827862  0.70000000  1
  Ta  Ta6  1  0.96827862  0.66827862  0.90000000  1
  Ta  Ta6  1  0.96827862  0.86827862  0.10000000  1
  Ta  Ta6  1  0.96827862  0.86827862  0.30000000  1
  Ta  Ta6  1  0.96827862  0.86827862  0.50000000  1
  Ta  Ta6  1  0.96827862  0.86827862  0.70000000  1
  Ta  Ta6  1  0.96827862  0.86827862  0.90000000  1
  Ta  Ta7  1  0.03172138  0.06827862  0.00000000  1
  Ta  Ta7  1  0.03172138  0.06827862  0.20000000  1
  Ta  Ta7  1  0.03172138  0.06827862  0.40000000  1
  Ta  Ta7  1  0.03172138  0.06827862  0.60000000  1
  Ta  Ta7  1  0.03172138  0.06827862  0.80000000  1
  Ta  Ta7  1  0.03172138  0.26827862  0.00000000  1
  Ta  Ta7  1  0.03172138  0.26827862  0.20000000  1
  Ta  Ta7  1  0.03172138  0.26827862  0.40000000  1
  Ta  Ta7  1  0.03172138  0.26827862  0.60000000  1
  Ta  Ta7  1  0.03172138  0.26827862  0.80000000  1
  Ta  Ta7  1  0.03172138  0.46827862  0.00000000  1
  Ta  Ta7  1  0.03172138  0.46827862  0.20000000  1
  Ta  Ta7  1  0.03172138  0.46827862  0.40000000  1
  Ta  Ta7  1  0.03172138  0.46827862  0.60000000  1
  Ta  Ta7  1  0.03172138  0.46827862  0.80000000  1
  Ta  Ta7  1  0.03172138  0.66827862  0.00000000  1
  Ta  Ta7  1  0.03172138  0.66827862  0.20000000  1
  Ta  Ta7  1  0.03172138  0.66827862  0.40000000  1
  Ta  Ta7  1  0.03172138  0.66827862  0.60000000  1
  Ta  Ta7  1  0.03172138  0.66827862  0.80000000  1
  Ta  Ta7  1  0.03172138  0.86827862  0.00000000  1
  Ta  Ta7  1  0.03172138  0.86827862  0.20000000  1
  Ta  Ta7  1  0.03172138  0.86827862  0.40000000  1
  Ta  Ta7  1  0.03172138  0.86827862  0.60000000  1
  Ta  Ta7  1  0.03172138  0.86827862  0.80000000  1
  Ta  Ta7  1  0.23172138  0.06827862  0.00000000  1
  Ta  Ta7  1  0.23172138  0.06827862  0.20000000  1
  Ta  Ta7  1  0.23172138  0.06827862  0.40000000  1
  Ta  Ta7  1  0.23172138  0.06827862  0.60000000  1
  Ta  Ta7  1  0.23172138  0.06827862  0.80000000  1
  Ta  Ta7  1  0.23172138  0.26827862  0.00000000  1
  Ta  Ta7  1  0.23172138  0.26827862  0.20000000  1
  Ta  Ta7  1  0.23172138  0.26827862  0.40000000  1
  Ta  Ta7  1  0.23172138  0.26827862  0.60000000  1
  Ta  Ta7  1  0.23172138  0.26827862  0.80000000  1
  Ta  Ta7  1  0.23172138  0.46827862  0.00000000  1
  Ta  Ta7  1  0.23172138  0.46827862  0.20000000  1
  Ta  Ta7  1  0.23172138  0.46827862  0.40000000  1
  Ta  Ta7  1  0.23172138  0.46827862  0.60000000  1
  Ta  Ta7  1  0.23172138  0.46827862  0.80000000  1
  Ta  Ta7  1  0.23172138  0.66827862  0.00000000  1
  Ta  Ta7  1  0.23172138  0.66827862  0.20000000  1
  Ta  Ta7  1  0.23172138  0.66827862  0.40000000  1
  Ta  Ta7  1  0.23172138  0.66827862  0.60000000  1
  Ta  Ta7  1  0.23172138  0.66827862  0.80000000  1
  Ta  Ta7  1  0.23172138  0.86827862  0.00000000  1
  Ta  Ta7  1  0.23172138  0.86827862  0.20000000  1
  Ta  Ta7  1  0.23172138  0.86827862  0.40000000  1
  Ta  Ta7  1  0.23172138  0.86827862  0.60000000  1
  Ta  Ta7  1  0.23172138  0.86827862  0.80000000  1
  Ta  Ta7  1  0.43172138  0.06827862  0.00000000  1
  Ta  Ta7  1  0.43172138  0.06827862  0.20000000  1
  Ta  Ta7  1  0.43172138  0.06827862  0.40000000  1
  Ta  Ta7  1  0.43172138  0.06827862  0.60000000  1
  Ta  Ta7  1  0.43172138  0.06827862  0.80000000  1
  Ta  Ta7  1  0.43172138  0.26827862  0.00000000  1
  Ta  Ta7  1  0.43172138  0.26827862  0.20000000  1
  Ta  Ta7  1  0.43172138  0.26827862  0.40000000  1
  Ta  Ta7  1  0.43172138  0.26827862  0.60000000  1
  Ta  Ta7  1  0.43172138  0.26827862  0.80000000  1
  Ta  Ta7  1  0.43172138  0.46827862  0.00000000  1
  Ta  Ta7  1  0.43172138  0.46827862  0.20000000  1
  Ta  Ta7  1  0.43172138  0.46827862  0.40000000  1
  Ta  Ta7  1  0.43172138  0.46827862  0.60000000  1
  Ta  Ta7  1  0.43172138  0.46827862  0.80000000  1
  Ta  Ta7  1  0.43172138  0.66827862  0.00000000  1
  Ta  Ta7  1  0.43172138  0.66827862  0.20000000  1
  Ta  Ta7  1  0.43172138  0.66827862  0.40000000  1
  Ta  Ta7  1  0.43172138  0.66827862  0.60000000  1
  Ta  Ta7  1  0.43172138  0.66827862  0.80000000  1
  Ta  Ta7  1  0.43172138  0.86827862  0.00000000  1
  Ta  Ta7  1  0.43172138  0.86827862  0.20000000  1
  Ta  Ta7  1  0.43172138  0.86827862  0.40000000  1
  Ta  Ta7  1  0.43172138  0.86827862  0.60000000  1
  Ta  Ta7  1  0.43172138  0.86827862  0.80000000  1
  Ta  Ta7  1  0.63172138  0.06827862  0.00000000  1
  Ta  Ta7  1  0.63172138  0.06827862  0.20000000  1
  Ta  Ta7  1  0.63172138  0.06827862  0.40000000  1
  Ta  Ta7  1  0.63172138  0.06827862  0.60000000  1
  Ta  Ta7  1  0.63172138  0.06827862  0.80000000  1
  Ta  Ta7  1  0.63172138  0.26827862  0.00000000  1
  Ta  Ta7  1  0.63172138  0.26827862  0.20000000  1
  Ta  Ta7  1  0.63172138  0.26827862  0.40000000  1
  Ta  Ta7  1  0.63172138  0.26827862  0.60000000  1
  Ta  Ta7  1  0.63172138  0.26827862  0.80000000  1
  Ta  Ta7  1  0.63172138  0.46827862  0.00000000  1
  Ta  Ta7  1  0.63172138  0.46827862  0.20000000  1
  Ta  Ta7  1  0.63172138  0.46827862  0.40000000  1
  Ta  Ta7  1  0.63172138  0.46827862  0.60000000  1
  Ta  Ta7  1  0.63172138  0.46827862  0.80000000  1
  Ta  Ta7  1  0.63172138  0.66827862  0.00000000  1
  Ta  Ta7  1  0.63172138  0.66827862  0.20000000  1
  Ta  Ta7  1  0.63172138  0.66827862  0.40000000  1
  Ta  Ta7  1  0.63172138  0.66827862  0.60000000  1
  Ta  Ta7  1  0.63172138  0.66827862  0.80000000  1
  Ta  Ta7  1  0.63172138  0.86827862  0.00000000  1
  Ta  Ta7  1  0.63172138  0.86827862  0.20000000  1
  Ta  Ta7  1  0.63172138  0.86827862  0.40000000  1
  Ta  Ta7  1  0.63172138  0.86827862  0.60000000  1
  Ta  Ta7  1  0.63172138  0.86827862  0.80000000  1
  Ta  Ta7  1  0.83172138  0.06827862  0.00000000  1
  Ta  Ta7  1  0.83172138  0.06827862  0.20000000  1
  Ta  Ta7  1  0.83172138  0.06827862  0.40000000  1
  Ta  Ta7  1  0.83172138  0.06827862  0.60000000  1
  Ta  Ta7  1  0.83172138  0.06827862  0.80000000  1
  Ta  Ta7  1  0.83172138  0.26827862  0.00000000  1
  Ta  Ta7  1  0.83172138  0.26827862  0.20000000  1
  Ta  Ta7  1  0.83172138  0.26827862  0.40000000  1
  Ta  Ta7  1  0.83172138  0.26827862  0.60000000  1
  Ta  Ta7  1  0.83172138  0.26827862  0.80000000  1
  Ta  Ta7  1  0.83172138  0.46827862  0.00000000  1
  Ta  Ta7  1  0.83172138  0.46827862  0.20000000  1
  Ta  Ta7  1  0.83172138  0.46827862  0.40000000  1
  Ta  Ta7  1  0.83172138  0.46827862  0.60000000  1
  Ta  Ta7  1  0.83172138  0.46827862  0.80000000  1
  Ta  Ta7  1  0.83172138  0.66827862  0.00000000  1
  Ta  Ta7  1  0.83172138  0.66827862  0.20000000  1
  Ta  Ta7  1  0.83172138  0.66827862  0.40000000  1
  Ta  Ta7  1  0.83172138  0.66827862  0.60000000  1
  Ta  Ta7  1  0.83172138  0.66827862  0.80000000  1
  Ta  Ta7  1  0.83172138  0.86827862  0.00000000  1
  Ta  Ta7  1  0.83172138  0.86827862  0.20000000  1
  Ta  Ta7  1  0.83172138  0.86827862  0.40000000  1
  Ta  Ta7  1  0.83172138  0.86827862  0.60000000  1
  Ta  Ta7  1  0.83172138  0.86827862  0.80000000  1
  Co  Co8  1  0.00000000  0.00000000  0.05000000  1
  Co  Co8  1  0.00000000  0.00000000  0.25000000  1
  Co  Co8  1  0.00000000  0.00000000  0.45000000  1
  Co  Co8  1  0.00000000  0.00000000  0.65000000  1
  Co  Co8  1  0.00000000  0.00000000  0.85000000  1
  Co  Co8  1  0.00000000  0.20000000  0.05000000  1
  Co  Co8  1  0.00000000  0.20000000  0.25000000  1
  Co  Co8  1  0.00000000  0.20000000  0.45000000  1
  Co  Co8  1  0.00000000  0.20000000  0.65000000  1
  Co  Co8  1  0.00000000  0.20000000  0.85000000  1
  Co  Co8  1  0.00000000  0.40000000  0.05000000  1
  Co  Co8  1  0.00000000  0.40000000  0.25000000  1
  Co  Co8  1  0.00000000  0.40000000  0.45000000  1
  Co  Co8  1  0.00000000  0.40000000  0.65000000  1
  Co  Co8  1  0.00000000  0.40000000  0.85000000  1
  Co  Co8  1  0.00000000  0.60000000  0.05000000  1
  Co  Co8  1  0.00000000  0.60000000  0.25000000  1
  Co  Co8  1  0.00000000  0.60000000  0.45000000  1
  Co  Co8  1  0.00000000  0.60000000  0.65000000  1
  Co  Co8  1  0.00000000  0.60000000  0.85000000  1
  Co  Co8  1  0.00000000  0.80000000  0.05000000  1
  Co  Co8  1  0.00000000  0.80000000  0.25000000  1
  Co  Co8  1  0.00000000  0.80000000  0.45000000  1
  Co  Co8  1  0.00000000  0.80000000  0.65000000  1
  Co  Co8  1  0.00000000  0.80000000  0.85000000  1
  Co  Co8  1  0.20000000  0.00000000  0.05000000  1
  Co  Co8  1  0.20000000  0.00000000  0.25000000  1
  Co  Co8  1  0.20000000  0.00000000  0.45000000  1
  Co  Co8  1  0.20000000  0.00000000  0.65000000  1
  Co  Co8  1  0.20000000  0.00000000  0.85000000  1
  Co  Co8  1  0.20000000  0.20000000  0.05000000  1
  Co  Co8  1  0.20000000  0.20000000  0.25000000  1
  Co  Co8  1  0.20000000  0.20000000  0.45000000  1
  Co  Co8  1  0.20000000  0.20000000  0.65000000  1
  Co  Co8  1  0.20000000  0.20000000  0.85000000  1
  Co  Co8  1  0.20000000  0.40000000  0.05000000  1
  Co  Co8  1  0.20000000  0.40000000  0.25000000  1
  Co  Co8  1  0.20000000  0.40000000  0.45000000  1
  Co  Co8  1  0.20000000  0.40000000  0.65000000  1
  Co  Co8  1  0.20000000  0.40000000  0.85000000  1
  Co  Co8  1  0.20000000  0.60000000  0.05000000  1
  Co  Co8  1  0.20000000  0.60000000  0.25000000  1
  Co  Co8  1  0.20000000  0.60000000  0.45000000  1
  Co  Co8  1  0.20000000  0.60000000  0.65000000  1
  Co  Co8  1  0.20000000  0.60000000  0.85000000  1
  Co  Co8  1  0.20000000  0.80000000  0.05000000  1
  Co  Co8  1  0.20000000  0.80000000  0.25000000  1
  Co  Co8  1  0.20000000  0.80000000  0.45000000  1
  Co  Co8  1  0.20000000  0.80000000  0.65000000  1
  Co  Co8  1  0.20000000  0.80000000  0.85000000  1
  Co  Co8  1  0.40000000  0.00000000  0.05000000  1
  Co  Co8  1  0.40000000  0.00000000  0.25000000  1
  Co  Co8  1  0.40000000  0.00000000  0.45000000  1
  Co  Co8  1  0.40000000  0.00000000  0.65000000  1
  Co  Co8  1  0.40000000  0.00000000  0.85000000  1
  Co  Co8  1  0.40000000  0.20000000  0.05000000  1
  Co  Co8  1  0.40000000  0.20000000  0.25000000  1
  Co  Co8  1  0.40000000  0.20000000  0.45000000  1
  Co  Co8  1  0.40000000  0.20000000  0.65000000  1
  Co  Co8  1  0.40000000  0.20000000  0.85000000  1
  Co  Co8  1  0.40000000  0.40000000  0.05000000  1
  Co  Co8  1  0.40000000  0.40000000  0.25000000  1
  Co  Co8  1  0.40000000  0.40000000  0.45000000  1
  Co  Co8  1  0.40000000  0.40000000  0.65000000  1
  Co  Co8  1  0.40000000  0.40000000  0.85000000  1
  Co  Co8  1  0.40000000  0.60000000  0.05000000  1
  Co  Co8  1  0.40000000  0.60000000  0.25000000  1
  Co  Co8  1  0.40000000  0.60000000  0.45000000  1
  Co  Co8  1  0.40000000  0.60000000  0.65000000  1
  Co  Co8  1  0.40000000  0.60000000  0.85000000  1
  Co  Co8  1  0.40000000  0.80000000  0.05000000  1
  Co  Co8  1  0.40000000  0.80000000  0.25000000  1
  Co  Co8  1  0.40000000  0.80000000  0.45000000  1
  Co  Co8  1  0.40000000  0.80000000  0.65000000  1
  Co  Co8  1  0.40000000  0.80000000  0.85000000  1
  Co  Co8  1  0.60000000  0.00000000  0.05000000  1
  Co  Co8  1  0.60000000  0.00000000  0.25000000  1
  Co  Co8  1  0.60000000  0.00000000  0.45000000  1
  Co  Co8  1  0.60000000  0.00000000  0.65000000  1
  Co  Co8  1  0.60000000  0.00000000  0.85000000  1
  Co  Co8  1  0.60000000  0.20000000  0.05000000  1
  Co  Co8  1  0.60000000  0.20000000  0.25000000  1
  Co  Co8  1  0.60000000  0.20000000  0.45000000  1
  Co  Co8  1  0.60000000  0.20000000  0.65000000  1
  Co  Co8  1  0.60000000  0.20000000  0.85000000  1
  Co  Co8  1  0.60000000  0.40000000  0.05000000  1
  Co  Co8  1  0.60000000  0.40000000  0.25000000  1
  Co  Co8  1  0.60000000  0.40000000  0.45000000  1
  Co  Co8  1  0.60000000  0.40000000  0.65000000  1
  Co  Co8  1  0.60000000  0.40000000  0.85000000  1
  Co  Co8  1  0.60000000  0.60000000  0.05000000  1
  Co  Co8  1  0.60000000  0.60000000  0.25000000  1
  Co  Co8  1  0.60000000  0.60000000  0.45000000  1
  Co  Co8  1  0.60000000  0.60000000  0.65000000  1
  Co  Co8  1  0.60000000  0.60000000  0.85000000  1
  Co  Co8  1  0.60000000  0.80000000  0.05000000  1
  Co  Co8  1  0.60000000  0.80000000  0.25000000  1
  Co  Co8  1  0.60000000  0.80000000  0.45000000  1
  Co  Co8  1  0.60000000  0.80000000  0.65000000  1
  Co  Co8  1  0.60000000  0.80000000  0.85000000  1
  Co  Co8  1  0.80000000  0.00000000  0.05000000  1
  Co  Co8  1  0.80000000  0.00000000  0.25000000  1
  Co  Co8  1  0.80000000  0.00000000  0.45000000  1
  Co  Co8  1  0.80000000  0.00000000  0.65000000  1
  Co  Co8  1  0.80000000  0.00000000  0.85000000  1
  Co  Co8  1  0.80000000  0.20000000  0.05000000  1
  Co  Co8  1  0.80000000  0.20000000  0.25000000  1
  Co  Co8  1  0.80000000  0.20000000  0.45000000  1
  Co  Co8  1  0.80000000  0.20000000  0.65000000  1
  Co  Co8  1  0.80000000  0.20000000  0.85000000  1
  Co  Co8  1  0.80000000  0.40000000  0.05000000  1
  Co  Co8  1  0.80000000  0.40000000  0.25000000  1
  Co  Co8  1  0.80000000  0.40000000  0.45000000  1
  Co  Co8  1  0.80000000  0.40000000  0.65000000  1
  Co  Co8  1  0.80000000  0.40000000  0.85000000  1
  Co  Co8  1  0.80000000  0.60000000  0.05000000  1
  Co  Co8  1  0.80000000  0.60000000  0.25000000  1
  Co  Co8  1  0.80000000  0.60000000  0.45000000  1
  Co  Co8  1  0.80000000  0.60000000  0.65000000  1
  Co  Co8  1  0.80000000  0.60000000  0.85000000  1
  Co  Co8  1  0.80000000  0.80000000  0.05000000  1
  Co  Co8  1  0.80000000  0.80000000  0.25000000  1
  Co  Co8  1  0.80000000  0.80000000  0.45000000  1
  Co  Co8  1  0.80000000  0.80000000  0.65000000  1
  Co  Co8  1  0.80000000  0.80000000  0.85000000  1
  Co  Co9  1  0.00000000  0.00000000  0.15000000  1
  Co  Co9  1  0.00000000  0.00000000  0.35000000  1
  Co  Co9  1  0.00000000  0.00000000  0.55000000  1
  Co  Co9  1  0.00000000  0.00000000  0.75000000  1
  Co  Co9  1  0.00000000  0.00000000  0.95000000  1
  Co  Co9  1  0.00000000  0.20000000  0.15000000  1
  Co  Co9  1  0.00000000  0.20000000  0.35000000  1
  Co  Co9  1  0.00000000  0.20000000  0.55000000  1
  Co  Co9  1  0.00000000  0.20000000  0.75000000  1
  Co  Co9  1  0.00000000  0.20000000  0.95000000  1
  Co  Co9  1  0.00000000  0.40000000  0.15000000  1
  Co  Co9  1  0.00000000  0.40000000  0.35000000  1
  Co  Co9  1  0.00000000  0.40000000  0.55000000  1
  Co  Co9  1  0.00000000  0.40000000  0.75000000  1
  Co  Co9  1  0.00000000  0.40000000  0.95000000  1
  Co  Co9  1  0.00000000  0.60000000  0.15000000  1
  Co  Co9  1  0.00000000  0.60000000  0.35000000  1
  Co  Co9  1  0.00000000  0.60000000  0.55000000  1
  Co  Co9  1  0.00000000  0.60000000  0.75000000  1
  Co  Co9  1  0.00000000  0.60000000  0.95000000  1
  Co  Co9  1  0.00000000  0.80000000  0.15000000  1
  Co  Co9  1  0.00000000  0.80000000  0.35000000  1
  Co  Co9  1  0.00000000  0.80000000  0.55000000  1
  Co  Co9  1  0.00000000  0.80000000  0.75000000  1
  Co  Co9  1  0.00000000  0.80000000  0.95000000  1
  Co  Co9  1  0.20000000  0.00000000  0.15000000  1
  Co  Co9  1  0.20000000  0.00000000  0.35000000  1
  Co  Co9  1  0.20000000  0.00000000  0.55000000  1
  Co  Co9  1  0.20000000  0.00000000  0.75000000  1
  Co  Co9  1  0.20000000  0.00000000  0.95000000  1
  Co  Co9  1  0.20000000  0.20000000  0.15000000  1
  Co  Co9  1  0.20000000  0.20000000  0.35000000  1
  Co  Co9  1  0.20000000  0.20000000  0.55000000  1
  Co  Co9  1  0.20000000  0.20000000  0.75000000  1
  Co  Co9  1  0.20000000  0.20000000  0.95000000  1
  Co  Co9  1  0.20000000  0.40000000  0.15000000  1
  Co  Co9  1  0.20000000  0.40000000  0.35000000  1
  Co  Co9  1  0.20000000  0.40000000  0.55000000  1
  Co  Co9  1  0.20000000  0.40000000  0.75000000  1
  Co  Co9  1  0.20000000  0.40000000  0.95000000  1
  Co  Co9  1  0.20000000  0.60000000  0.15000000  1
  Co  Co9  1  0.20000000  0.60000000  0.35000000  1
  Co  Co9  1  0.20000000  0.60000000  0.55000000  1
  Co  Co9  1  0.20000000  0.60000000  0.75000000  1
  Co  Co9  1  0.20000000  0.60000000  0.95000000  1
  Co  Co9  1  0.20000000  0.80000000  0.15000000  1
  Co  Co9  1  0.20000000  0.80000000  0.35000000  1
  Co  Co9  1  0.20000000  0.80000000  0.55000000  1
  Co  Co9  1  0.20000000  0.80000000  0.75000000  1
  Co  Co9  1  0.20000000  0.80000000  0.95000000  1
  Co  Co9  1  0.40000000  0.00000000  0.15000000  1
  Co  Co9  1  0.40000000  0.00000000  0.35000000  1
  Co  Co9  1  0.40000000  0.00000000  0.55000000  1
  Co  Co9  1  0.40000000  0.00000000  0.75000000  1
  Co  Co9  1  0.40000000  0.00000000  0.95000000  1
  Co  Co9  1  0.40000000  0.20000000  0.15000000  1
  Co  Co9  1  0.40000000  0.20000000  0.35000000  1
  Co  Co9  1  0.40000000  0.20000000  0.55000000  1
  Co  Co9  1  0.40000000  0.20000000  0.75000000  1
  Co  Co9  1  0.40000000  0.20000000  0.95000000  1
  Co  Co9  1  0.40000000  0.40000000  0.15000000  1
  Co  Co9  1  0.40000000  0.40000000  0.35000000  1
  Co  Co9  1  0.40000000  0.40000000  0.55000000  1
  Co  Co9  1  0.40000000  0.40000000  0.75000000  1
  Co  Co9  1  0.40000000  0.40000000  0.95000000  1
  Co  Co9  1  0.40000000  0.60000000  0.15000000  1
  Co  Co9  1  0.40000000  0.60000000  0.35000000  1
  Co  Co9  1  0.40000000  0.60000000  0.55000000  1
  Co  Co9  1  0.40000000  0.60000000  0.75000000  1
  Co  Co9  1  0.40000000  0.60000000  0.95000000  1
  Co  Co9  1  0.40000000  0.80000000  0.15000000  1
  Co  Co9  1  0.40000000  0.80000000  0.35000000  1
  Co  Co9  1  0.40000000  0.80000000  0.55000000  1
  Co  Co9  1  0.40000000  0.80000000  0.75000000  1
  Co  Co9  1  0.40000000  0.80000000  0.95000000  1
  Co  Co9  1  0.60000000  0.00000000  0.15000000  1
  Co  Co9  1  0.60000000  0.00000000  0.35000000  1
  Co  Co9  1  0.60000000  0.00000000  0.55000000  1
  Co  Co9  1  0.60000000  0.00000000  0.75000000  1
  Co  Co9  1  0.60000000  0.00000000  0.95000000  1
  Co  Co9  1  0.60000000  0.20000000  0.15000000  1
  Co  Co9  1  0.60000000  0.20000000  0.35000000  1
  Co  Co9  1  0.60000000  0.20000000  0.55000000  1
  Co  Co9  1  0.60000000  0.20000000  0.75000000  1
  Co  Co9  1  0.60000000  0.20000000  0.95000000  1
  Co  Co9  1  0.60000000  0.40000000  0.15000000  1
  Co  Co9  1  0.60000000  0.40000000  0.35000000  1
  Co  Co9  1  0.60000000  0.40000000  0.55000000  1
  Co  Co9  1  0.60000000  0.40000000  0.75000000  1
  Co  Co9  1  0.60000000  0.40000000  0.95000000  1
  Co  Co9  1  0.60000000  0.60000000  0.15000000  1
  Co  Co9  1  0.60000000  0.60000000  0.35000000  1
  Co  Co9  1  0.60000000  0.60000000  0.55000000  1
  Co  Co9  1  0.60000000  0.60000000  0.75000000  1
  Co  Co9  1  0.60000000  0.60000000  0.95000000  1
  Co  Co9  1  0.60000000  0.80000000  0.15000000  1
  Co  Co9  1  0.60000000  0.80000000  0.35000000  1
  Co  Co9  1  0.60000000  0.80000000  0.55000000  1
  Co  Co9  1  0.60000000  0.80000000  0.75000000  1
  Co  Co9  1  0.60000000  0.80000000  0.95000000  1
  Co  Co9  1  0.80000000  0.00000000  0.15000000  1
  Co  Co9  1  0.80000000  0.00000000  0.35000000  1
  Co  Co9  1  0.80000000  0.00000000  0.55000000  1
  Co  Co9  1  0.80000000  0.00000000  0.75000000  1
  Co  Co9  1  0.80000000  0.00000000  0.95000000  1
  Co  Co9  1  0.80000000  0.20000000  0.15000000  1
  Co  Co9  1  0.80000000  0.20000000  0.35000000  1
  Co  Co9  1  0.80000000  0.20000000  0.55000000  1
  Co  Co9  1  0.80000000  0.20000000  0.75000000  1
  Co  Co9  1  0.80000000  0.20000000  0.95000000  1
  Co  Co9  1  0.80000000  0.40000000  0.15000000  1
  Co  Co9  1  0.80000000  0.40000000  0.35000000  1
  Co  Co9  1  0.80000000  0.40000000  0.55000000  1
  Co  Co9  1  0.80000000  0.40000000  0.75000000  1
  Co  Co9  1  0.80000000  0.40000000  0.95000000  1
  Co  Co9  1  0.80000000  0.60000000  0.15000000  1
  Co  Co9  1  0.80000000  0.60000000  0.35000000  1
  Co  Co9  1  0.80000000  0.60000000  0.55000000  1
  Co  Co9  1  0.80000000  0.60000000  0.75000000  1
  Co  Co9  1  0.80000000  0.60000000  0.95000000  1
  Co  Co9  1  0.80000000  0.80000000  0.15000000  1
  Co  Co9  1  0.80000000  0.80000000  0.35000000  1
  Co  Co9  1  0.80000000  0.80000000  0.55000000  1
  Co  Co9  1  0.80000000  0.80000000  0.75000000  1
  Co  Co9  1  0.80000000  0.80000000  0.95000000  1
  Co  Co10  1  0.10000000  0.10000000  0.15000000  1
  Co  Co10  1  0.10000000  0.10000000  0.35000000  1
  Co  Co10  1  0.10000000  0.10000000  0.55000000  1
  Co  Co10  1  0.10000000  0.10000000  0.75000000  1
  Co  Co10  1  0.10000000  0.10000000  0.95000000  1
  Co  Co10  1  0.10000000  0.30000000  0.15000000  1
  Co  Co10  1  0.10000000  0.30000000  0.35000000  1
  Co  Co10  1  0.10000000  0.30000000  0.55000000  1
  Co  Co10  1  0.10000000  0.30000000  0.75000000  1
  Co  Co10  1  0.10000000  0.30000000  0.95000000  1
  Co  Co10  1  0.10000000  0.50000000  0.15000000  1
  Co  Co10  1  0.10000000  0.50000000  0.35000000  1
  Co  Co10  1  0.10000000  0.50000000  0.55000000  1
  Co  Co10  1  0.10000000  0.50000000  0.75000000  1
  Co  Co10  1  0.10000000  0.50000000  0.95000000  1
  Co  Co10  1  0.10000000  0.70000000  0.15000000  1
  Co  Co10  1  0.10000000  0.70000000  0.35000000  1
  Co  Co10  1  0.10000000  0.70000000  0.55000000  1
  Co  Co10  1  0.10000000  0.70000000  0.75000000  1
  Co  Co10  1  0.10000000  0.70000000  0.95000000  1
  Co  Co10  1  0.10000000  0.90000000  0.15000000  1
  Co  Co10  1  0.10000000  0.90000000  0.35000000  1
  Co  Co10  1  0.10000000  0.90000000  0.55000000  1
  Co  Co10  1  0.10000000  0.90000000  0.75000000  1
  Co  Co10  1  0.10000000  0.90000000  0.95000000  1
  Co  Co10  1  0.30000000  0.10000000  0.15000000  1
  Co  Co10  1  0.30000000  0.10000000  0.35000000  1
  Co  Co10  1  0.30000000  0.10000000  0.55000000  1
  Co  Co10  1  0.30000000  0.10000000  0.75000000  1
  Co  Co10  1  0.30000000  0.10000000  0.95000000  1
  Co  Co10  1  0.30000000  0.30000000  0.15000000  1
  Co  Co10  1  0.30000000  0.30000000  0.35000000  1
  Co  Co10  1  0.30000000  0.30000000  0.55000000  1
  Co  Co10  1  0.30000000  0.30000000  0.75000000  1
  Co  Co10  1  0.30000000  0.30000000  0.95000000  1
  Co  Co10  1  0.30000000  0.50000000  0.15000000  1
  Co  Co10  1  0.30000000  0.50000000  0.35000000  1
  Co  Co10  1  0.30000000  0.50000000  0.55000000  1
  Co  Co10  1  0.30000000  0.50000000  0.75000000  1
  Co  Co10  1  0.30000000  0.50000000  0.95000000  1
  Co  Co10  1  0.30000000  0.70000000  0.15000000  1
  Co  Co10  1  0.30000000  0.70000000  0.35000000  1
  Co  Co10  1  0.30000000  0.70000000  0.55000000  1
  Co  Co10  1  0.30000000  0.70000000  0.75000000  1
  Co  Co10  1  0.30000000  0.70000000  0.95000000  1
  Co  Co10  1  0.30000000  0.90000000  0.15000000  1
  Co  Co10  1  0.30000000  0.90000000  0.35000000  1
  Co  Co10  1  0.30000000  0.90000000  0.55000000  1
  Co  Co10  1  0.30000000  0.90000000  0.75000000  1
  Co  Co10  1  0.30000000  0.90000000  0.95000000  1
  Co  Co10  1  0.50000000  0.10000000  0.15000000  1
  Co  Co10  1  0.50000000  0.10000000  0.35000000  1
  Co  Co10  1  0.50000000  0.10000000  0.55000000  1
  Co  Co10  1  0.50000000  0.10000000  0.75000000  1
  Co  Co10  1  0.50000000  0.10000000  0.95000000  1
  Co  Co10  1  0.50000000  0.30000000  0.15000000  1
  Co  Co10  1  0.50000000  0.30000000  0.35000000  1
  Co  Co10  1  0.50000000  0.30000000  0.55000000  1
  Co  Co10  1  0.50000000  0.30000000  0.75000000  1
  Co  Co10  1  0.50000000  0.30000000  0.95000000  1
  Co  Co10  1  0.50000000  0.50000000  0.15000000  1
  Co  Co10  1  0.50000000  0.50000000  0.35000000  1
  Co  Co10  1  0.50000000  0.50000000  0.55000000  1
  Co  Co10  1  0.50000000  0.50000000  0.75000000  1
  Co  Co10  1  0.50000000  0.50000000  0.95000000  1
  Co  Co10  1  0.50000000  0.70000000  0.15000000  1
  Co  Co10  1  0.50000000  0.70000000  0.35000000  1
  Co  Co10  1  0.50000000  0.70000000  0.55000000  1
  Co  Co10  1  0.50000000  0.70000000  0.75000000  1
  Co  Co10  1  0.50000000  0.70000000  0.95000000  1
  Co  Co10  1  0.50000000  0.90000000  0.15000000  1
  Co  Co10  1  0.50000000  0.90000000  0.35000000  1
  Co  Co10  1  0.50000000  0.90000000  0.55000000  1
  Co  Co10  1  0.50000000  0.90000000  0.75000000  1
  Co  Co10  1  0.50000000  0.90000000  0.95000000  1
  Co  Co10  1  0.70000000  0.10000000  0.15000000  1
  Co  Co10  1  0.70000000  0.10000000  0.35000000  1
  Co  Co10  1  0.70000000  0.10000000  0.55000000  1
  Co  Co10  1  0.70000000  0.10000000  0.75000000  1
  Co  Co10  1  0.70000000  0.10000000  0.95000000  1
  Co  Co10  1  0.70000000  0.30000000  0.15000000  1
  Co  Co10  1  0.70000000  0.30000000  0.35000000  1
  Co  Co10  1  0.70000000  0.30000000  0.55000000  1
  Co  Co10  1  0.70000000  0.30000000  0.75000000  1
  Co  Co10  1  0.70000000  0.30000000  0.95000000  1
  Co  Co10  1  0.70000000  0.50000000  0.15000000  1
  Co  Co10  1  0.70000000  0.50000000  0.35000000  1
  Co  Co10  1  0.70000000  0.50000000  0.55000000  1
  Co  Co10  1  0.70000000  0.50000000  0.75000000  1
  Co  Co10  1  0.70000000  0.50000000  0.95000000  1
  Co  Co10  1  0.70000000  0.70000000  0.15000000  1
  Co  Co10  1  0.70000000  0.70000000  0.35000000  1
  Co  Co10  1  0.70000000  0.70000000  0.55000000  1
  Co  Co10  1  0.70000000  0.70000000  0.75000000  1
  Co  Co10  1  0.70000000  0.70000000  0.95000000  1
  Co  Co10  1  0.70000000  0.90000000  0.15000000  1
  Co  Co10  1  0.70000000  0.90000000  0.35000000  1
  Co  Co10  1  0.70000000  0.90000000  0.55000000  1
  Co  Co10  1  0.70000000  0.90000000  0.75000000  1
  Co  Co10  1  0.70000000  0.90000000  0.95000000  1
  Co  Co10  1  0.90000000  0.10000000  0.15000000  1
  Co  Co10  1  0.90000000  0.10000000  0.35000000  1
  Co  Co10  1  0.90000000  0.10000000  0.55000000  1
  Co  Co10  1  0.90000000  0.10000000  0.75000000  1
  Co  Co10  1  0.90000000  0.10000000  0.95000000  1
  Co  Co10  1  0.90000000  0.30000000  0.15000000  1
  Co  Co10  1  0.90000000  0.30000000  0.35000000  1
  Co  Co10  1  0.90000000  0.30000000  0.55000000  1
  Co  Co10  1  0.90000000  0.30000000  0.75000000  1
  Co  Co10  1  0.90000000  0.30000000  0.95000000  1
  Co  Co10  1  0.90000000  0.50000000  0.15000000  1
  Co  Co10  1  0.90000000  0.50000000  0.35000000  1
  Co  Co10  1  0.90000000  0.50000000  0.55000000  1
  Co  Co10  1  0.90000000  0.50000000  0.75000000  1
  Co  Co10  1  0.90000000  0.50000000  0.95000000  1
  Co  Co10  1  0.90000000  0.70000000  0.15000000  1
  Co  Co10  1  0.90000000  0.70000000  0.35000000  1
  Co  Co10  1  0.90000000  0.70000000  0.55000000  1
  Co  Co10  1  0.90000000  0.70000000  0.75000000  1
  Co  Co10  1  0.90000000  0.70000000  0.95000000  1
  Co  Co10  1  0.90000000  0.90000000  0.15000000  1
  Co  Co10  1  0.90000000  0.90000000  0.35000000  1
  Co  Co10  1  0.90000000  0.90000000  0.55000000  1
  Co  Co10  1  0.90000000  0.90000000  0.75000000  1
  Co  Co10  1  0.90000000  0.90000000  0.95000000  1
  Co  Co11  1  0.10000000  0.10000000  0.05000000  1
  Co  Co11  1  0.10000000  0.10000000  0.25000000  1
  Co  Co11  1  0.10000000  0.10000000  0.45000000  1
  Co  Co11  1  0.10000000  0.10000000  0.65000000  1
  Co  Co11  1  0.10000000  0.10000000  0.85000000  1
  Co  Co11  1  0.10000000  0.30000000  0.05000000  1
  Co  Co11  1  0.10000000  0.30000000  0.25000000  1
  Co  Co11  1  0.10000000  0.30000000  0.45000000  1
  Co  Co11  1  0.10000000  0.30000000  0.65000000  1
  Co  Co11  1  0.10000000  0.30000000  0.85000000  1
  Co  Co11  1  0.10000000  0.50000000  0.05000000  1
  Co  Co11  1  0.10000000  0.50000000  0.25000000  1
  Co  Co11  1  0.10000000  0.50000000  0.45000000  1
  Co  Co11  1  0.10000000  0.50000000  0.65000000  1
  Co  Co11  1  0.10000000  0.50000000  0.85000000  1
  Co  Co11  1  0.10000000  0.70000000  0.05000000  1
  Co  Co11  1  0.10000000  0.70000000  0.25000000  1
  Co  Co11  1  0.10000000  0.70000000  0.45000000  1
  Co  Co11  1  0.10000000  0.70000000  0.65000000  1
  Co  Co11  1  0.10000000  0.70000000  0.85000000  1
  Co  Co11  1  0.10000000  0.90000000  0.05000000  1
  Co  Co11  1  0.10000000  0.90000000  0.25000000  1
  Co  Co11  1  0.10000000  0.90000000  0.45000000  1
  Co  Co11  1  0.10000000  0.90000000  0.65000000  1
  Co  Co11  1  0.10000000  0.90000000  0.85000000  1
  Co  Co11  1  0.30000000  0.10000000  0.05000000  1
  Co  Co11  1  0.30000000  0.10000000  0.25000000  1
  Co  Co11  1  0.30000000  0.10000000  0.45000000  1
  Co  Co11  1  0.30000000  0.10000000  0.65000000  1
  Co  Co11  1  0.30000000  0.10000000  0.85000000  1
  Co  Co11  1  0.30000000  0.30000000  0.05000000  1
  Co  Co11  1  0.30000000  0.30000000  0.25000000  1
  Co  Co11  1  0.30000000  0.30000000  0.45000000  1
  Co  Co11  1  0.30000000  0.30000000  0.65000000  1
  Co  Co11  1  0.30000000  0.30000000  0.85000000  1
  Co  Co11  1  0.30000000  0.50000000  0.05000000  1
  Co  Co11  1  0.30000000  0.50000000  0.25000000  1
  Co  Co11  1  0.30000000  0.50000000  0.45000000  1
  Co  Co11  1  0.30000000  0.50000000  0.65000000  1
  Co  Co11  1  0.30000000  0.50000000  0.85000000  1
  Co  Co11  1  0.30000000  0.70000000  0.05000000  1
  Co  Co11  1  0.30000000  0.70000000  0.25000000  1
  Co  Co11  1  0.30000000  0.70000000  0.45000000  1
  Co  Co11  1  0.30000000  0.70000000  0.65000000  1
  Co  Co11  1  0.30000000  0.70000000  0.85000000  1
  Co  Co11  1  0.30000000  0.90000000  0.05000000  1
  Co  Co11  1  0.30000000  0.90000000  0.25000000  1
  Co  Co11  1  0.30000000  0.90000000  0.45000000  1
  Co  Co11  1  0.30000000  0.90000000  0.65000000  1
  Co  Co11  1  0.30000000  0.90000000  0.85000000  1
  Co  Co11  1  0.50000000  0.10000000  0.05000000  1
  Co  Co11  1  0.50000000  0.10000000  0.25000000  1
  Co  Co11  1  0.50000000  0.10000000  0.45000000  1
  Co  Co11  1  0.50000000  0.10000000  0.65000000  1
  Co  Co11  1  0.50000000  0.10000000  0.85000000  1
  Co  Co11  1  0.50000000  0.30000000  0.05000000  1
  Co  Co11  1  0.50000000  0.30000000  0.25000000  1
  Co  Co11  1  0.50000000  0.30000000  0.45000000  1
  Co  Co11  1  0.50000000  0.30000000  0.65000000  1
  Co  Co11  1  0.50000000  0.30000000  0.85000000  1
  Co  Co11  1  0.50000000  0.50000000  0.05000000  1
  Co  Co11  1  0.50000000  0.50000000  0.25000000  1
  Co  Co11  1  0.50000000  0.50000000  0.45000000  1
  Co  Co11  1  0.50000000  0.50000000  0.65000000  1
  Co  Co11  1  0.50000000  0.50000000  0.85000000  1
  Co  Co11  1  0.50000000  0.70000000  0.05000000  1
  Co  Co11  1  0.50000000  0.70000000  0.25000000  1
  Co  Co11  1  0.50000000  0.70000000  0.45000000  1
  Co  Co11  1  0.50000000  0.70000000  0.65000000  1
  Co  Co11  1  0.50000000  0.70000000  0.85000000  1
  Co  Co11  1  0.50000000  0.90000000  0.05000000  1
  Co  Co11  1  0.50000000  0.90000000  0.25000000  1
  Co  Co11  1  0.50000000  0.90000000  0.45000000  1
  Co  Co11  1  0.50000000  0.90000000  0.65000000  1
  Co  Co11  1  0.50000000  0.90000000  0.85000000  1
  Co  Co11  1  0.70000000  0.10000000  0.05000000  1
  Co  Co11  1  0.70000000  0.10000000  0.25000000  1
  Co  Co11  1  0.70000000  0.10000000  0.45000000  1
  Co  Co11  1  0.70000000  0.10000000  0.65000000  1
  Co  Co11  1  0.70000000  0.10000000  0.85000000  1
  Co  Co11  1  0.70000000  0.30000000  0.05000000  1
  Co  Co11  1  0.70000000  0.30000000  0.25000000  1
  Co  Co11  1  0.70000000  0.30000000  0.45000000  1
  Co  Co11  1  0.70000000  0.30000000  0.65000000  1
  Co  Co11  1  0.70000000  0.30000000  0.85000000  1
  Co  Co11  1  0.70000000  0.50000000  0.05000000  1
  Co  Co11  1  0.70000000  0.50000000  0.25000000  1
  Co  Co11  1  0.70000000  0.50000000  0.45000000  1
  Co  Co11  1  0.70000000  0.50000000  0.65000000  1
  Co  Co11  1  0.70000000  0.50000000  0.85000000  1
  Co  Co11  1  0.70000000  0.70000000  0.05000000  1
  Co  Co11  1  0.70000000  0.70000000  0.25000000  1
  Co  Co11  1  0.70000000  0.70000000  0.45000000  1
  Co  Co11  1  0.70000000  0.70000000  0.65000000  1
  Co  Co11  1  0.70000000  0.70000000  0.85000000  1
  Co  Co11  1  0.70000000  0.90000000  0.05000000  1
  Co  Co11  1  0.70000000  0.90000000  0.25000000  1
  Co  Co11  1  0.70000000  0.90000000  0.45000000  1
  Co  Co11  1  0.70000000  0.90000000  0.65000000  1
  Co  Co11  1  0.70000000  0.90000000  0.85000000  1
  Co  Co11  1  0.90000000  0.10000000  0.05000000  1
  Co  Co11  1  0.90000000  0.10000000  0.25000000  1
  Co  Co11  1  0.90000000  0.10000000  0.45000000  1
  Co  Co11  1  0.90000000  0.10000000  0.65000000  1
  Co  Co11  1  0.90000000  0.10000000  0.85000000  1
  Co  Co11  1  0.90000000  0.30000000  0.05000000  1
  Co  Co11  1  0.90000000  0.30000000  0.25000000  1
  Co  Co11  1  0.90000000  0.30000000  0.45000000  1
  Co  Co11  1  0.90000000  0.30000000  0.65000000  1
  Co  Co11  1  0.90000000  0.30000000  0.85000000  1
  Co  Co11  1  0.90000000  0.50000000  0.05000000  1
  Co  Co11  1  0.90000000  0.50000000  0.25000000  1
  Co  Co11  1  0.90000000  0.50000000  0.45000000  1
  Co  Co11  1  0.90000000  0.50000000  0.65000000  1
  Co  Co11  1  0.90000000  0.50000000  0.85000000  1
  Co  Co11  1  0.90000000  0.70000000  0.05000000  1
  Co  Co11  1  0.90000000  0.70000000  0.25000000  1
  Co  Co11  1  0.90000000  0.70000000  0.45000000  1
  Co  Co11  1  0.90000000  0.70000000  0.65000000  1
  Co  Co11  1  0.90000000  0.70000000  0.85000000  1
  Co  Co11  1  0.90000000  0.90000000  0.05000000  1
  Co  Co11  1  0.90000000  0.90000000  0.25000000  1
  Co  Co11  1  0.90000000  0.90000000  0.45000000  1
  Co  Co11  1  0.90000000  0.90000000  0.65000000  1
  Co  Co11  1  0.90000000  0.90000000  0.85000000  1
