# generated using pymatgen
data_Ta3Co
_symmetry_space_group_name_H-M   'P 1'
_cell_length_a   20.15000000
_cell_length_b   20.15000000
_cell_length_c   20.15000000
_cell_angle_alpha   90.00000000
_cell_angle_beta   90.00000000
_cell_angle_gamma   90.00000000
_symmetry_Int_Tables_number   1
_chemical_formula_structural   Ta3Co
_chemical_formula_sum   'Ta750 Co250'
_cell_volume   8181.35337500
_cell_formula_units_Z   250
loop_
 _symmetry_equiv_pos_site_id
 _symmetry_equiv_pos_as_xyz
  1  'x, y, z'
loop_
 _atom_site_type_symbol
 _atom_site_label
 _atom_site_symmetry_multiplicity
 _atom_site_fract_x
 _atom_site_fract_y
 _atom_site_fract_z
 _atom_site_occupancy
  Ta  Ta1  1  0.16660000  0.13320000  0.05000000  1
  Ta  Ta1  1  0.16660000  0.13320000  0.25000000  1
  Ta  Ta1  1  0.16660000  0.13320000  0.45000000  1
  Ta  Ta1  1  0.16660000  0.13320000  0.65000000  1
  Ta  Ta1  1  0.16660000  0.13320000  0.85000000  1
  Ta  Ta1  1  0.16660000  0.33320000  0.05000000  1
  Ta  Ta1  1  0.16660000  0.33320000  0.25000000  1
  Ta  Ta1  1  0.16660000  0.33320000  0.45000000  1
  Ta  Ta1  1  0.16660000  0.33320000  0.65000000  1
  Ta  Ta1  1  0.16660000  0.33320000  0.85000000  1
  Ta  Ta1  1  0.16660000  0.53320000  0.05000000  1
  Ta  Ta1  1  0.16660000  0.53320000  0.25000000  1
  Ta  Ta1  1  0.16660000  0.53320000  0.45000000  1
  Ta  Ta1  1  0.16660000  0.53320000  0.65000000  1
  Ta  Ta1  1  0.16660000  0.53320000  0.85000000  1
  Ta  Ta1  1  0.16660000  0.73320000  0.05000000  1
  Ta  Ta1  1  0.16660000  0.73320000  0.25000000  1
  Ta  Ta1  1  0.16660000  0.73320000  0.45000000  1
  Ta  Ta1  1  0.16660000  0.73320000  0.65000000  1
  Ta  Ta1  1  0.16660000  0.73320000  0.85000000  1
  Ta  Ta1  1  0.16660000  0.93320000  0.05000000  1
  Ta  Ta1  1  0.16660000  0.93320000  0.25000000  1
  Ta  Ta1  1  0.16660000  0.93320000  0.45000000  1
  Ta  Ta1  1  0.16660000  0.93320000  0.65000000  1
  Ta  Ta1  1  0.16660000  0.93320000  0.85000000  1
  Ta  Ta1  1  0.36660000  0.13320000  0.05000000  1
  Ta  Ta1  1  0.36660000  0.13320000  0.25000000  1
  Ta  Ta1  1  0.36660000  0.13320000  0.45000000  1
  Ta  Ta1  1  0.36660000  0.13320000  0.65000000  1
  Ta  Ta1  1  0.36660000  0.13320000  0.85000000  1
  Ta  Ta1  1  0.36660000  0.33320000  0.05000000  1
  Ta  Ta1  1  0.36660000  0.33320000  0.25000000  1
  Ta  Ta1  1  0.36660000  0.33320000  0.45000000  1
  Ta  Ta1  1  0.36660000  0.33320000  0.65000000  1
  Ta  Ta1  1  0.36660000  0.33320000  0.85000000  1
  Ta  Ta1  1  0.36660000  0.53320000  0.05000000  1
  Ta  Ta1  1  0.36660000  0.53320000  0.25000000  1
  Ta  Ta1  1  0.36660000  0.53320000  0.45000000  1
  Ta  Ta1  1  0.36660000  0.53320000  0.65000000  1
  Ta  Ta1  1  0.36660000  0.53320000  0.85000000  1
  Ta  Ta1  1  0.36660000  0.73320000  0.05000000  1
  Ta  Ta1  1  0.36660000  0.73320000  0.25000000  1
  Ta  Ta1  1  0.36660000  0.73320000  0.45000000  1
  Ta  Ta1  1  0.36660000  0.73320000  0.65000000  1
  Ta  Ta1  1  0.36660000  0.73320000  0.85000000  1
  Ta  Ta1  1  0.36660000  0.93320000  0.05000000  1
  Ta  Ta1  1  0.36660000  0.93320000  0.25000000  1
  Ta  Ta1  1  0.36660000  0.93320000  0.45000000  1
  Ta  Ta1  1  0.36660000  0.93320000  0.65000000  1
  Ta  Ta1  1  0.36660000  0.93320000  0.85000000  1
  Ta  Ta1  1  0.56660000  0.13320000  0.05000000  1
  Ta  Ta1  1  0.56660000  0.13320000  0.25000000  1
  Ta  Ta1  1  0.56660000  0.13320000  0.45000000  1
  Ta  Ta1  1  0.56660000  0.13320000  0.65000000  1
  Ta  Ta1  1  0.56660000  0.13320000  0.85000000  1
  Ta  Ta1  1  0.56660000  0.33320000  0.05000000  1
  Ta  Ta1  1  0.56660000  0.33320000  0.25000000  1
  Ta  Ta1  1  0.56660000  0.33320000  0.45000000  1
  Ta  Ta1  1  0.56660000  0.33320000  0.65000000  1
  Ta  Ta1  1  0.56660000  0.33320000  0.85000000  1
  Ta  Ta1  1  0.56660000  0.53320000  0.05000000  1
  Ta  Ta1  1  0.56660000  0.53320000  0.25000000  1
  Ta  Ta1  1  0.56660000  0.53320000  0.45000000  1
  Ta  Ta1  1  0.56660000  0.53320000  0.65000000  1
  Ta  Ta1  1  0.56660000  0.53320000  0.85000000  1
  Ta  Ta1  1  0.56660000  0.73320000  0.05000000  1
  Ta  Ta1  1  0.56660000  0.73320000  0.25000000  1
  Ta  Ta1  1  0.56660000  0.73320000  0.45000000  1
  Ta  Ta1  1  0.56660000  0.73320000  0.65000000  1
  Ta  Ta1  1  0.56660000  0.73320000  0.85000000  1
  Ta  Ta1  1  0.56660000  0.93320000  0.05000000  1
  Ta  Ta1  1  0.56660000  0.93320000  0.25000000  1
  Ta  Ta1  1  0.56660000  0.93320000  0.45000000  1
  Ta  Ta1  1  0.56660000  0.93320000  0.65000000  1
  Ta  Ta1  1  0.56660000  0.93320000  0.85000000  1
  Ta  Ta1  1  0.76660000  0.13320000  0.05000000  1
  Ta  Ta1  1  0.76660000  0.13320000  0.25000000  1
  Ta  Ta1  1  0.76660000  0.13320000  0.45000000  1
  Ta  Ta1  1  0.76660000  0.13320000  0.65000000  1
  Ta  Ta1  1  0.76660000  0.13320000  0.85000000  1
  Ta  Ta1  1  0.76660000  0.33320000  0.05000000  1
  Ta  Ta1  1  0.76660000  0.33320000  0.25000000  1
  Ta  Ta1  1  0.76660000  0.33320000  0.45000000  1
  Ta  Ta1  1  0.76660000  0.33320000  0.65000000  1
  Ta  Ta1  1  0.76660000  0.33320000  0.85000000  1
  Ta  Ta1  1  0.76660000  0.53320000  0.05000000  1
  Ta  Ta1  1  0.76660000  0.53320000  0.25000000  1
  Ta  Ta1  1  0.76660000  0.53320000  0.45000000  1
  Ta  Ta1  1  0.76660000  0.53320000  0.65000000  1
  Ta  Ta1  1  0.76660000  0.53320000  0.85000000  1
  Ta  Ta1  1  0.76660000  0.73320000  0.05000000  1
  Ta  Ta1  1  0.76660000  0.73320000  0.25000000  1
  Ta  Ta1  1  0.76660000  0.73320000  0.45000000  1
  Ta  Ta1  1  0.76660000  0.73320000  0.65000000  1
  Ta  Ta1  1  0.76660000  0.73320000  0.85000000  1
  Ta  Ta1  1  0.76660000  0.93320000  0.05000000  1
  Ta  Ta1  1  0.76660000  0.93320000  0.25000000  1
  Ta  Ta1  1  0.76660000  0.93320000  0.45000000  1
  Ta  Ta1  1  0.76660000  0.93320000  0.65000000  1
  Ta  Ta1  1  0.76660000  0.93320000  0.85000000  1
  Ta  Ta1  1  0.96660000  0.13320000  0.05000000  1
  Ta  Ta1  1  0.96660000  0.13320000  0.25000000  1
  Ta  Ta1  1  0.96660000  0.13320000  0.45000000  1
  Ta  Ta1  1  0.96660000  0.13320000  0.65000000  1
  Ta  Ta1  1  0.96660000  0.13320000  0.85000000  1
  Ta  Ta1  1  0.96660000  0.33320000  0.05000000  1
  Ta  Ta1  1  0.96660000  0.33320000  0.25000000  1
  Ta  Ta1  1  0.96660000  0.33320000  0.45000000  1
  Ta  Ta1  1  0.96660000  0.33320000  0.65000000  1
  Ta  Ta1  1  0.96660000  0.33320000  0.85000000  1
  Ta  Ta1  1  0.96660000  0.53320000  0.05000000  1
  Ta  Ta1  1  0.96660000  0.53320000  0.25000000  1
  Ta  Ta1  1  0.96660000  0.53320000  0.45000000  1
  Ta  Ta1  1  0.96660000  0.53320000  0.65000000  1
  Ta  Ta1  1  0.96660000  0.53320000  0.85000000  1
  Ta  Ta1  1  0.96660000  0.73320000  0.05000000  1
  Ta  Ta1  1  0.96660000  0.73320000  0.25000000  1
  Ta  Ta1  1  0.96660000  0.73320000  0.45000000  1
  Ta  Ta1  1  0.96660000  0.73320000  0.65000000  1
  Ta  Ta1  1  0.96660000  0.73320000  0.85000000  1
  Ta  Ta1  1  0.96660000  0.93320000  0.05000000  1
  Ta  Ta1  1  0.96660000  0.93320000  0.25000000  1
  Ta  Ta1  1  0.96660000  0.93320000  0.45000000  1
  Ta  Ta1  1  0.96660000  0.93320000  0.65000000  1
  Ta  Ta1  1  0.96660000  0.93320000  0.85000000  1
  Ta  Ta1  1  0.03340000  0.16660000  0.15000000  1
  Ta  Ta1  1  0.03340000  0.16660000  0.35000000  1
  Ta  Ta1  1  0.03340000  0.16660000  0.55000000  1
  Ta  Ta1  1  0.03340000  0.16660000  0.75000000  1
  Ta  Ta1  1  0.03340000  0.16660000  0.95000000  1
  Ta  Ta1  1  0.03340000  0.36660000  0.15000000  1
  Ta  Ta1  1  0.03340000  0.36660000  0.35000000  1
  Ta  Ta1  1  0.03340000  0.36660000  0.55000000  1
  Ta  Ta1  1  0.03340000  0.36660000  0.75000000  1
  Ta  Ta1  1  0.03340000  0.36660000  0.95000000  1
  Ta  Ta1  1  0.03340000  0.56660000  0.15000000  1
  Ta  Ta1  1  0.03340000  0.56660000  0.35000000  1
  Ta  Ta1  1  0.03340000  0.56660000  0.55000000  1
  Ta  Ta1  1  0.03340000  0.56660000  0.75000000  1
  Ta  Ta1  1  0.03340000  0.56660000  0.95000000  1
  Ta  Ta1  1  0.03340000  0.76660000  0.15000000  1
  Ta  Ta1  1  0.03340000  0.76660000  0.35000000  1
  Ta  Ta1  1  0.03340000  0.76660000  0.55000000  1
  Ta  Ta1  1  0.03340000  0.76660000  0.75000000  1
  Ta  Ta1  1  0.03340000  0.76660000  0.95000000  1
  Ta  Ta1  1  0.03340000  0.96660000  0.15000000  1
  Ta  Ta1  1  0.03340000  0.96660000  0.35000000  1
  Ta  Ta1  1  0.03340000  0.96660000  0.55000000  1
  Ta  Ta1  1  0.03340000  0.96660000  0.75000000  1
  Ta  Ta1  1  0.03340000  0.96660000  0.95000000  1
  Ta  Ta1  1  0.23340000  0.16660000  0.15000000  1
  Ta  Ta1  1  0.23340000  0.16660000  0.35000000  1
  Ta  Ta1  1  0.23340000  0.16660000  0.55000000  1
  Ta  Ta1  1  0.23340000  0.16660000  0.75000000  1
  Ta  Ta1  1  0.23340000  0.16660000  0.95000000  1
  Ta  Ta1  1  0.23340000  0.36660000  0.15000000  1
  Ta  Ta1  1  0.23340000  0.36660000  0.35000000  1
  Ta  Ta1  1  0.23340000  0.36660000  0.55000000  1
  Ta  Ta1  1  0.23340000  0.36660000  0.75000000  1
  Ta  Ta1  1  0.23340000  0.36660000  0.95000000  1
  Ta  Ta1  1  0.23340000  0.56660000  0.15000000  1
  Ta  Ta1  1  0.23340000  0.56660000  0.35000000  1
  Ta  Ta1  1  0.23340000  0.56660000  0.55000000  1
  Ta  Ta1  1  0.23340000  0.56660000  0.75000000  1
  Ta  Ta1  1  0.23340000  0.56660000  0.95000000  1
  Ta  Ta1  1  0.23340000  0.76660000  0.15000000  1
  Ta  Ta1  1  0.23340000  0.76660000  0.35000000  1
  Ta  Ta1  1  0.23340000  0.76660000  0.55000000  1
  Ta  Ta1  1  0.23340000  0.76660000  0.75000000  1
  Ta  Ta1  1  0.23340000  0.76660000  0.95000000  1
  Ta  Ta1  1  0.23340000  0.96660000  0.15000000  1
  Ta  Ta1  1  0.23340000  0.96660000  0.35000000  1
  Ta  Ta1  1  0.23340000  0.96660000  0.55000000  1
  Ta  Ta1  1  0.23340000  0.96660000  0.75000000  1
  Ta  Ta1  1  0.23340000  0.96660000  0.95000000  1
  Ta  Ta1  1  0.43340000  0.16660000  0.15000000  1
  Ta  Ta1  1  0.43340000  0.16660000  0.35000000  1
  Ta  Ta1  1  0.43340000  0.16660000  0.55000000  1
  Ta  Ta1  1  0.43340000  0.16660000  0.75000000  1
  Ta  Ta1  1  0.43340000  0.16660000  0.95000000  1
  Ta  Ta1  1  0.43340000  0.36660000  0.15000000  1
  Ta  Ta1  1  0.43340000  0.36660000  0.35000000  1
  Ta  Ta1  1  0.43340000  0.36660000  0.55000000  1
  Ta  Ta1  1  0.43340000  0.36660000  0.75000000  1
  Ta  Ta1  1  0.43340000  0.36660000  0.95000000  1
  Ta  Ta1  1  0.43340000  0.56660000  0.15000000  1
  Ta  Ta1  1  0.43340000  0.56660000  0.35000000  1
  Ta  Ta1  1  0.43340000  0.56660000  0.55000000  1
  Ta  Ta1  1  0.43340000  0.56660000  0.75000000  1
  Ta  Ta1  1  0.43340000  0.56660000  0.95000000  1
  Ta  Ta1  1  0.43340000  0.76660000  0.15000000  1
  Ta  Ta1  1  0.43340000  0.76660000  0.35000000  1
  Ta  Ta1  1  0.43340000  0.76660000  0.55000000  1
  Ta  Ta1  1  0.43340000  0.76660000  0.75000000  1
  Ta  Ta1  1  0.43340000  0.76660000  0.95000000  1
  Ta  Ta1  1  0.43340000  0.96660000  0.15000000  1
  Ta  Ta1  1  0.43340000  0.96660000  0.35000000  1
  Ta  Ta1  1  0.43340000  0.96660000  0.55000000  1
  Ta  Ta1  1  0.43340000  0.96660000  0.75000000  1
  Ta  Ta1  1  0.43340000  0.96660000  0.95000000  1
  Ta  Ta1  1  0.63340000  0.16660000  0.15000000  1
  Ta  Ta1  1  0.63340000  0.16660000  0.35000000  1
  Ta  Ta1  1  0.63340000  0.16660000  0.55000000  1
  Ta  Ta1  1  0.63340000  0.16660000  0.75000000  1
  Ta  Ta1  1  0.63340000  0.16660000  0.95000000  1
  Ta  Ta1  1  0.63340000  0.36660000  0.15000000  1
  Ta  Ta1  1  0.63340000  0.36660000  0.35000000  1
  Ta  Ta1  1  0.63340000  0.36660000  0.55000000  1
  Ta  Ta1  1  0.63340000  0.36660000  0.75000000  1
  Ta  Ta1  1  0.63340000  0.36660000  0.95000000  1
  Ta  Ta1  1  0.63340000  0.56660000  0.15000000  1
  Ta  Ta1  1  0.63340000  0.56660000  0.35000000  1
  Ta  Ta1  1  0.63340000  0.56660000  0.55000000  1
  Ta  Ta1  1  0.63340000  0.56660000  0.75000000  1
  Ta  Ta1  1  0.63340000  0.56660000  0.95000000  1
  Ta  Ta1  1  0.63340000  0.76660000  0.15000000  1
  Ta  Ta1  1  0.63340000  0.76660000  0.35000000  1
  Ta  Ta1  1  0.63340000  0.76660000  0.55000000  1
  Ta  Ta1  1  0.63340000  0.76660000  0.75000000  1
  Ta  Ta1  1  0.63340000  0.76660000  0.95000000  1
  Ta  Ta1  1  0.63340000  0.96660000  0.15000000  1
  Ta  Ta1  1  0.63340000  0.96660000  0.35000000  1
  Ta  Ta1  1  0.63340000  0.96660000  0.55000000  1
  Ta  Ta1  1  0.63340000  0.96660000  0.75000000  1
  Ta  Ta1  1  0.63340000  0.96660000  0.95000000  1
  Ta  Ta1  1  0.83340000  0.16660000  0.15000000  1
  Ta  Ta1  1  0.83340000  0.16660000  0.35000000  1
  Ta  Ta1  1  0.83340000  0.16660000  0.55000000  1
  Ta  Ta1  1  0.83340000  0.16660000  0.75000000  1
  Ta  Ta1  1  0.83340000  0.16660000  0.95000000  1
  Ta  Ta1  1  0.83340000  0.36660000  0.15000000  1
  Ta  Ta1  1  0.83340000  0.36660000  0.35000000  1
  Ta  Ta1  1  0.83340000  0.36660000  0.55000000  1
  Ta  Ta1  1  0.83340000  0.36660000  0.75000000  1
  Ta  Ta1  1  0.83340000  0.36660000  0.95000000  1
  Ta  Ta1  1  0.83340000  0.56660000  0.15000000  1
  Ta  Ta1  1  0.83340000  0.56660000  0.35000000  1
  Ta  Ta1  1  0.83340000  0.56660000  0.55000000  1
  Ta  Ta1  1  0.83340000  0.56660000  0.75000000  1
  Ta  Ta1  1  0.83340000  0.56660000  0.95000000  1
  Ta  Ta1  1  0.83340000  0.76660000  0.15000000  1
  Ta  Ta1  1  0.83340000  0.76660000  0.35000000  1
  Ta  Ta1  1  0.83340000  0.76660000  0.55000000  1
  Ta  Ta1  1  0.83340000  0.76660000  0.75000000  1
  Ta  Ta1  1  0.83340000  0.76660000  0.95000000  1
  Ta  Ta1  1  0.83340000  0.96660000  0.15000000  1
  Ta  Ta1  1  0.83340000  0.96660000  0.35000000  1
  Ta  Ta1  1  0.83340000  0.96660000  0.55000000  1
  Ta  Ta1  1  0.83340000  0.96660000  0.75000000  1
  Ta  Ta1  1  0.83340000  0.96660000  0.95000000  1
  Ta  Ta1  1  0.06680000  0.03340000  0.05000000  1
  Ta  Ta1  1  0.06680000  0.03340000  0.25000000  1
  Ta  Ta1  1  0.06680000  0.03340000  0.45000000  1
  Ta  Ta1  1  0.06680000  0.03340000  0.65000000  1
  Ta  Ta1  1  0.06680000  0.03340000  0.85000000  1
  Ta  Ta1  1  0.06680000  0.23340000  0.05000000  1
  Ta  Ta1  1  0.06680000  0.23340000  0.25000000  1
  Ta  Ta1  1  0.06680000  0.23340000  0.45000000  1
  Ta  Ta1  1  0.06680000  0.23340000  0.65000000  1
  Ta  Ta1  1  0.06680000  0.23340000  0.85000000  1
  Ta  Ta1  1  0.06680000  0.43340000  0.05000000  1
  Ta  Ta1  1  0.06680000  0.43340000  0.25000000  1
  Ta  Ta1  1  0.06680000  0.43340000  0.45000000  1
  Ta  Ta1  1  0.06680000  0.43340000  0.65000000  1
  Ta  Ta1  1  0.06680000  0.43340000  0.85000000  1
  Ta  Ta1  1  0.06680000  0.63340000  0.05000000  1
  Ta  Ta1  1  0.06680000  0.63340000  0.25000000  1
  Ta  Ta1  1  0.06680000  0.63340000  0.45000000  1
  Ta  Ta1  1  0.06680000  0.63340000  0.65000000  1
  Ta  Ta1  1  0.06680000  0.63340000  0.85000000  1
  Ta  Ta1  1  0.06680000  0.83340000  0.05000000  1
  Ta  Ta1  1  0.06680000  0.83340000  0.25000000  1
  Ta  Ta1  1  0.06680000  0.83340000  0.45000000  1
  Ta  Ta1  1  0.06680000  0.83340000  0.65000000  1
  Ta  Ta1  1  0.06680000  0.83340000  0.85000000  1
  Ta  Ta1  1  0.26680000  0.03340000  0.05000000  1
  Ta  Ta1  1  0.26680000  0.03340000  0.25000000  1
  Ta  Ta1  1  0.26680000  0.03340000  0.45000000  1
  Ta  Ta1  1  0.26680000  0.03340000  0.65000000  1
  Ta  Ta1  1  0.26680000  0.03340000  0.85000000  1
  Ta  Ta1  1  0.26680000  0.23340000  0.05000000  1
  Ta  Ta1  1  0.26680000  0.23340000  0.25000000  1
  Ta  Ta1  1  0.26680000  0.23340000  0.45000000  1
  Ta  Ta1  1  0.26680000  0.23340000  0.65000000  1
  Ta  Ta1  1  0.26680000  0.23340000  0.85000000  1
  Ta  Ta1  1  0.26680000  0.43340000  0.05000000  1
  Ta  Ta1  1  0.26680000  0.43340000  0.25000000  1
  Ta  Ta1  1  0.26680000  0.43340000  0.45000000  1
  Ta  Ta1  1  0.26680000  0.43340000  0.65000000  1
  Ta  Ta1  1  0.26680000  0.43340000  0.85000000  1
  Ta  Ta1  1  0.26680000  0.63340000  0.05000000  1
  Ta  Ta1  1  0.26680000  0.63340000  0.25000000  1
  Ta  Ta1  1  0.26680000  0.63340000  0.45000000  1
  Ta  Ta1  1  0.26680000  0.63340000  0.65000000  1
  Ta  Ta1  1  0.26680000  0.63340000  0.85000000  1
  Ta  Ta1  1  0.26680000  0.83340000  0.05000000  1
  Ta  Ta1  1  0.26680000  0.83340000  0.25000000  1
  Ta  Ta1  1  0.26680000  0.83340000  0.45000000  1
  Ta  Ta1  1  0.26680000  0.83340000  0.65000000  1
  Ta  Ta1  1  0.26680000  0.83340000  0.85000000  1
  Ta  Ta1  1  0.46680000  0.03340000  0.05000000  1
  Ta  Ta1  1  0.46680000  0.03340000  0.25000000  1
  Ta  Ta1  1  0.46680000  0.03340000  0.45000000  1
  Ta  Ta1  1  0.46680000  0.03340000  0.65000000  1
  Ta  Ta1  1  0.46680000  0.03340000  0.85000000  1
  Ta  Ta1  1  0.46680000  0.23340000  0.05000000  1
  Ta  Ta1  1  0.46680000  0.23340000  0.25000000  1
  Ta  Ta1  1  0.46680000  0.23340000  0.45000000  1
  Ta  Ta1  1  0.46680000  0.23340000  0.65000000  1
  Ta  Ta1  1  0.46680000  0.23340000  0.85000000  1
  Ta  Ta1  1  0.46680000  0.43340000  0.05000000  1
  Ta  Ta1  1  0.46680000  0.43340000  0.25000000  1
  Ta  Ta1  1  0.46680000  0.43340000  0.45000000  1
  Ta  Ta1  1  0.46680000  0.43340000  0.65000000  1
  Ta  Ta1  1  0.46680000  0.43340000  0.85000000  1
  Ta  Ta1  1  0.46680000  0.63340000  0.05000000  1
  Ta  Ta1  1  0.46680000  0.63340000  0.25000000  1
  Ta  Ta1  1  0.46680000  0.63340000  0.45000000  1
  Ta  Ta1  1  0.46680000  0.63340000  0.65000000  1
  Ta  Ta1  1  0.46680000  0.63340000  0.85000000  1
  Ta  Ta1  1  0.46680000  0.83340000  0.05000000  1
  Ta  Ta1  1  0.46680000  0.83340000  0.25000000  1
  Ta  Ta1  1  0.46680000  0.83340000  0.45000000  1
  Ta  Ta1  1  0.46680000  0.83340000  0.65000000  1
  Ta  Ta1  1  0.46680000  0.83340000  0.85000000  1
  Ta  Ta1  1  0.66680000  0.03340000  0.05000000  1
  Ta  Ta1  1  0.66680000  0.03340000  0.25000000  1
  Ta  Ta1  1  0.66680000  0.03340000  0.45000000  1
  Ta  Ta1  1  0.66680000  0.03340000  0.65000000  1
  Ta  Ta1  1  0.66680000  0.03340000  0.85000000  1
  Ta  Ta1  1  0.66680000  0.23340000  0.05000000  1
  Ta  Ta1  1  0.66680000  0.23340000  0.25000000  1
  Ta  Ta1  1  0.66680000  0.23340000  0.45000000  1
  Ta  Ta1  1  0.66680000  0.23340000  0.65000000  1
  Ta  Ta1  1  0.66680000  0.23340000  0.85000000  1
  Ta  Ta1  1  0.66680000  0.43340000  0.05000000  1
  Ta  Ta1  1  0.66680000  0.43340000  0.25000000  1
  Ta  Ta1  1  0.66680000  0.43340000  0.45000000  1
  Ta  Ta1  1  0.66680000  0.43340000  0.65000000  1
  Ta  Ta1  1  0.66680000  0.43340000  0.85000000  1
  Ta  Ta1  1  0.66680000  0.63340000  0.05000000  1
  Ta  Ta1  1  0.66680000  0.63340000  0.25000000  1
  Ta  Ta1  1  0.66680000  0.63340000  0.45000000  1
  Ta  Ta1  1  0.66680000  0.63340000  0.65000000  1
  Ta  Ta1  1  0.66680000  0.63340000  0.85000000  1
  Ta  Ta1  1  0.66680000  0.83340000  0.05000000  1
  Ta  Ta1  1  0.66680000  0.83340000  0.25000000  1
  Ta  Ta1  1  0.66680000  0.83340000  0.45000000  1
  Ta  Ta1  1  0.66680000  0.83340000  0.65000000  1
  Ta  Ta1  1  0.66680000  0.83340000  0.85000000  1
  Ta  Ta1  1  0.86680000  0.03340000  0.05000000  1
  Ta  Ta1  1  0.86680000  0.03340000  0.25000000  1
  Ta  Ta1  1  0.86680000  0.03340000  0.45000000  1
  Ta  Ta1  1  0.86680000  0.03340000  0.65000000  1
  Ta  Ta1  1  0.86680000  0.03340000  0.85000000  1
  Ta  Ta1  1  0.86680000  0.23340000  0.05000000  1
  Ta  Ta1  1  0.86680000  0.23340000  0.25000000  1
  Ta  Ta1  1  0.86680000  0.23340000  0.45000000  1
  Ta  Ta1  1  0.86680000  0.23340000  0.65000000  1
  Ta  Ta1  1  0.86680000  0.23340000  0.85000000  1
  Ta  Ta1  1  0.86680000  0.43340000  0.05000000  1
  Ta  Ta1  1  0.86680000  0.43340000  0.25000000  1
  Ta  Ta1  1  0.86680000  0.43340000  0.45000000  1
  Ta  Ta1  1  0.86680000  0.43340000  0.65000000  1
  Ta  Ta1  1  0.86680000  0.43340000  0.85000000  1
  Ta  Ta1  1  0.86680000  0.63340000  0.05000000  1
  Ta  Ta1  1  0.86680000  0.63340000  0.25000000  1
  Ta  Ta1  1  0.86680000  0.63340000  0.45000000  1
  Ta  Ta1  1  0.86680000  0.63340000  0.65000000  1
  Ta  Ta1  1  0.86680000  0.63340000  0.85000000  1
  Ta  Ta1  1  0.86680000  0.83340000  0.05000000  1
  Ta  Ta1  1  0.86680000  0.83340000  0.25000000  1
  Ta  Ta1  1  0.86680000  0.83340000  0.45000000  1
  Ta  Ta1  1  0.86680000  0.83340000  0.65000000  1
  Ta  Ta1  1  0.86680000  0.83340000  0.85000000  1
  Ta  Ta1  1  0.03340000  0.06680000  0.15000000  1
  Ta  Ta1  1  0.03340000  0.06680000  0.35000000  1
  Ta  Ta1  1  0.03340000  0.06680000  0.55000000  1
  Ta  Ta1  1  0.03340000  0.06680000  0.75000000  1
  Ta  Ta1  1  0.03340000  0.06680000  0.95000000  1
  Ta  Ta1  1  0.03340000  0.26680000  0.15000000  1
  Ta  Ta1  1  0.03340000  0.26680000  0.35000000  1
  Ta  Ta1  1  0.03340000  0.26680000  0.55000000  1
  Ta  Ta1  1  0.03340000  0.26680000  0.75000000  1
  Ta  Ta1  1  0.03340000  0.26680000  0.95000000  1
  Ta  Ta1  1  0.03340000  0.46680000  0.15000000  1
  Ta  Ta1  1  0.03340000  0.46680000  0.35000000  1
  Ta  Ta1  1  0.03340000  0.46680000  0.55000000  1
  Ta  Ta1  1  0.03340000  0.46680000  0.75000000  1
  Ta  Ta1  1  0.03340000  0.46680000  0.95000000  1
  Ta  Ta1  1  0.03340000  0.66680000  0.15000000  1
  Ta  Ta1  1  0.03340000  0.66680000  0.35000000  1
  Ta  Ta1  1  0.03340000  0.66680000  0.55000000  1
  Ta  Ta1  1  0.03340000  0.66680000  0.75000000  1
  Ta  Ta1  1  0.03340000  0.66680000  0.95000000  1
  Ta  Ta1  1  0.03340000  0.86680000  0.15000000  1
  Ta  Ta1  1  0.03340000  0.86680000  0.35000000  1
  Ta  Ta1  1  0.03340000  0.86680000  0.55000000  1
  Ta  Ta1  1  0.03340000  0.86680000  0.75000000  1
  Ta  Ta1  1  0.03340000  0.86680000  0.95000000  1
  Ta  Ta1  1  0.23340000  0.06680000  0.15000000  1
  Ta  Ta1  1  0.23340000  0.06680000  0.35000000  1
  Ta  Ta1  1  0.23340000  0.06680000  0.55000000  1
  Ta  Ta1  1  0.23340000  0.06680000  0.75000000  1
  Ta  Ta1  1  0.23340000  0.06680000  0.95000000  1
  Ta  Ta1  1  0.23340000  0.26680000  0.15000000  1
  Ta  Ta1  1  0.23340000  0.26680000  0.35000000  1
  Ta  Ta1  1  0.23340000  0.26680000  0.55000000  1
  Ta  Ta1  1  0.23340000  0.26680000  0.75000000  1
  Ta  Ta1  1  0.23340000  0.26680000  0.95000000  1
  Ta  Ta1  1  0.23340000  0.46680000  0.15000000  1
  Ta  Ta1  1  0.23340000  0.46680000  0.35000000  1
  Ta  Ta1  1  0.23340000  0.46680000  0.55000000  1
  Ta  Ta1  1  0.23340000  0.46680000  0.75000000  1
  Ta  Ta1  1  0.23340000  0.46680000  0.95000000  1
  Ta  Ta1  1  0.23340000  0.66680000  0.15000000  1
  Ta  Ta1  1  0.23340000  0.66680000  0.35000000  1
  Ta  Ta1  1  0.23340000  0.66680000  0.55000000  1
  Ta  Ta1  1  0.23340000  0.66680000  0.75000000  1
  Ta  Ta1  1  0.23340000  0.66680000  0.95000000  1
  Ta  Ta1  1  0.23340000  0.86680000  0.15000000  1
  Ta  Ta1  1  0.23340000  0.86680000  0.35000000  1
  Ta  Ta1  1  0.23340000  0.86680000  0.55000000  1
  Ta  Ta1  1  0.23340000  0.86680000  0.75000000  1
  Ta  Ta1  1  0.23340000  0.86680000  0.95000000  1
  Ta  Ta1  1  0.43340000  0.06680000  0.15000000  1
  Ta  Ta1  1  0.43340000  0.06680000  0.35000000  1
  Ta  Ta1  1  0.43340000  0.06680000  0.55000000  1
  Ta  Ta1  1  0.43340000  0.06680000  0.75000000  1
  Ta  Ta1  1  0.43340000  0.06680000  0.95000000  1
  Ta  Ta1  1  0.43340000  0.26680000  0.15000000  1
  Ta  Ta1  1  0.43340000  0.26680000  0.35000000  1
  Ta  Ta1  1  0.43340000  0.26680000  0.55000000  1
  Ta  Ta1  1  0.43340000  0.26680000  0.75000000  1
  Ta  Ta1  1  0.43340000  0.26680000  0.95000000  1
  Ta  Ta1  1  0.43340000  0.46680000  0.15000000  1
  Ta  Ta1  1  0.43340000  0.46680000  0.35000000  1
  Ta  Ta1  1  0.43340000  0.46680000  0.55000000  1
  Ta  Ta1  1  0.43340000  0.46680000  0.75000000  1
  Ta  Ta1  1  0.43340000  0.46680000  0.95000000  1
  Ta  Ta1  1  0.43340000  0.66680000  0.15000000  1
  Ta  Ta1  1  0.43340000  0.66680000  0.35000000  1
  Ta  Ta1  1  0.43340000  0.66680000  0.55000000  1
  Ta  Ta1  1  0.43340000  0.66680000  0.75000000  1
  Ta  Ta1  1  0.43340000  0.66680000  0.95000000  1
  Ta  Ta1  1  0.43340000  0.86680000  0.15000000  1
  Ta  Ta1  1  0.43340000  0.86680000  0.35000000  1
  Ta  Ta1  1  0.43340000  0.86680000  0.55000000  1
  Ta  Ta1  1  0.43340000  0.86680000  0.75000000  1
  Ta  Ta1  1  0.43340000  0.86680000  0.95000000  1
  Ta  Ta1  1  0.63340000  0.06680000  0.15000000  1
  Ta  Ta1  1  0.63340000  0.06680000  0.35000000  1
  Ta  Ta1  1  0.63340000  0.06680000  0.55000000  1
  Ta  Ta1  1  0.63340000  0.06680000  0.75000000  1
  Ta  Ta1  1  0.63340000  0.06680000  0.95000000  1
  Ta  Ta1  1  0.63340000  0.26680000  0.15000000  1
  Ta  Ta1  1  0.63340000  0.26680000  0.35000000  1
  Ta  Ta1  1  0.63340000  0.26680000  0.55000000  1
  Ta  Ta1  1  0.63340000  0.26680000  0.75000000  1
  Ta  Ta1  1  0.63340000  0.26680000  0.95000000  1
  Ta  Ta1  1  0.63340000  0.46680000  0.15000000  1
  Ta  Ta1  1  0.63340000  0.46680000  0.35000000  1
  Ta  Ta1  1  0.63340000  0.46680000  0.55000000  1
  Ta  Ta1  1  0.63340000  0.46680000  0.75000000  1
  Ta  Ta1  1  0.63340000  0.46680000  0.95000000  1
  Ta  Ta1  1  0.63340000  0.66680000  0.15000000  1
  Ta  Ta1  1  0.63340000  0.66680000  0.35000000  1
  Ta  Ta1  1  0.63340000  0.66680000  0.55000000  1
  Ta  Ta1  1  0.63340000  0.66680000  0.75000000  1
  Ta  Ta1  1  0.63340000  0.66680000  0.95000000  1
  Ta  Ta1  1  0.63340000  0.86680000  0.15000000  1
  Ta  Ta1  1  0.63340000  0.86680000  0.35000000  1
  Ta  Ta1  1  0.63340000  0.86680000  0.55000000  1
  Ta  Ta1  1  0.63340000  0.86680000  0.75000000  1
  Ta  Ta1  1  0.63340000  0.86680000  0.95000000  1
  Ta  Ta1  1  0.83340000  0.06680000  0.15000000  1
  Ta  Ta1  1  0.83340000  0.06680000  0.35000000  1
  Ta  Ta1  1  0.83340000  0.06680000  0.55000000  1
  Ta  Ta1  1  0.83340000  0.06680000  0.75000000  1
  Ta  Ta1  1  0.83340000  0.06680000  0.95000000  1
  Ta  Ta1  1  0.83340000  0.26680000  0.15000000  1
  Ta  Ta1  1  0.83340000  0.26680000  0.35000000  1
  Ta  Ta1  1  0.83340000  0.26680000  0.55000000  1
  Ta  Ta1  1  0.83340000  0.26680000  0.75000000  1
  Ta  Ta1  1  0.83340000  0.26680000  0.95000000  1
  Ta  Ta1  1  0.83340000  0.46680000  0.15000000  1
  Ta  Ta1  1  0.83340000  0.46680000  0.35000000  1
  Ta  Ta1  1  0.83340000  0.46680000  0.55000000  1
  Ta  Ta1  1  0.83340000  0.46680000  0.75000000  1
  Ta  Ta1  1  0.83340000  0.46680000  0.95000000  1
  Ta  Ta1  1  0.83340000  0.66680000  0.15000000  1
  Ta  Ta1  1  0.83340000  0.66680000  0.35000000  1
  Ta  Ta1  1  0.83340000  0.66680000  0.55000000  1
  Ta  Ta1  1  0.83340000  0.66680000  0.75000000  1
  Ta  Ta1  1  0.83340000  0.66680000  0.95000000  1
  Ta  Ta1  1  0.83340000  0.86680000  0.15000000  1
  Ta  Ta1  1  0.83340000  0.86680000  0.35000000  1
  Ta  Ta1  1  0.83340000  0.86680000  0.55000000  1
  Ta  Ta1  1  0.83340000  0.86680000  0.75000000  1
  Ta  Ta1  1  0.83340000  0.86680000  0.95000000  1
  Ta  Ta1  1  0.16660000  0.03340000  0.05000000  1
  Ta  Ta1  1  0.16660000  0.03340000  0.25000000  1
  Ta  Ta1  1  0.16660000  0.03340000  0.45000000  1
  Ta  Ta1  1  0.16660000  0.03340000  0.65000000  1
  Ta  Ta1  1  0.16660000  0.03340000  0.85000000  1
  Ta  Ta1  1  0.16660000  0.23340000  0.05000000  1
  Ta  Ta1  1  0.16660000  0.23340000  0.25000000  1
  Ta  Ta1  1  0.16660000  0.23340000  0.45000000  1
  Ta  Ta1  1  0.16660000  0.23340000  0.65000000  1
  Ta  Ta1  1  0.16660000  0.23340000  0.85000000  1
  Ta  Ta1  1  0.16660000  0.43340000  0.05000000  1
  Ta  Ta1  1  0.16660000  0.43340000  0.25000000  1
  Ta  Ta1  1  0.16660000  0.43340000  0.45000000  1
  Ta  Ta1  1  0.16660000  0.43340000  0.65000000  1
  Ta  Ta1  1  0.16660000  0.43340000  0.85000000  1
  Ta  Ta1  1  0.16660000  0.63340000  0.05000000  1
  Ta  Ta1  1  0.16660000  0.63340000  0.25000000  1
  Ta  Ta1  1  0.16660000  0.63340000  0.45000000  1
  Ta  Ta1  1  0.16660000  0.63340000  0.65000000  1
  Ta  Ta1  1  0.16660000  0.63340000  0.85000000  1
  Ta  Ta1  1  0.16660000  0.83340000  0.05000000  1
  Ta  Ta1  1  0.16660000  0.83340000  0.25000000  1
  Ta  Ta1  1  0.16660000  0.83340000  0.45000000  1
  Ta  Ta1  1  0.16660000  0.83340000  0.65000000  1
  Ta  Ta1  1  0.16660000  0.83340000  0.85000000  1
  Ta  Ta1  1  0.36660000  0.03340000  0.05000000  1
  Ta  Ta1  1  0.36660000  0.03340000  0.25000000  1
  Ta  Ta1  1  0.36660000  0.03340000  0.45000000  1
  Ta  Ta1  1  0.36660000  0.03340000  0.65000000  1
  Ta  Ta1  1  0.36660000  0.03340000  0.85000000  1
  Ta  Ta1  1  0.36660000  0.23340000  0.05000000  1
  Ta  Ta1  1  0.36660000  0.23340000  0.25000000  1
  Ta  Ta1  1  0.36660000  0.23340000  0.45000000  1
  Ta  Ta1  1  0.36660000  0.23340000  0.65000000  1
  Ta  Ta1  1  0.36660000  0.23340000  0.85000000  1
  Ta  Ta1  1  0.36660000  0.43340000  0.05000000  1
  Ta  Ta1  1  0.36660000  0.43340000  0.25000000  1
  Ta  Ta1  1  0.36660000  0.43340000  0.45000000  1
  Ta  Ta1  1  0.36660000  0.43340000  0.65000000  1
  Ta  Ta1  1  0.36660000  0.43340000  0.85000000  1
  Ta  Ta1  1  0.36660000  0.63340000  0.05000000  1
  Ta  Ta1  1  0.36660000  0.63340000  0.25000000  1
  Ta  Ta1  1  0.36660000  0.63340000  0.45000000  1
  Ta  Ta1  1  0.36660000  0.63340000  0.65000000  1
  Ta  Ta1  1  0.36660000  0.63340000  0.85000000  1
  Ta  Ta1  1  0.36660000  0.83340000  0.05000000  1
  Ta  Ta1  1  0.36660000  0.83340000  0.25000000  1
  Ta  Ta1  1  0.36660000  0.83340000  0.45000000  1
  Ta  Ta1  1  0.36660000  0.83340000  0.65000000  1
  Ta  Ta1  1  0.36660000  0.83340000  0.85000000  1
  Ta  Ta1  1  0.56660000  0.03340000  0.05000000  1
  Ta  Ta1  1  0.56660000  0.03340000  0.25000000  1
  Ta  Ta1  1  0.56660000  0.03340000  0.45000000  1
  Ta  Ta1  1  0.56660000  0.03340000  0.65000000  1
  Ta  Ta1  1  0.56660000  0.03340000  0.85000000  1
  Ta  Ta1  1  0.56660000  0.23340000  0.05000000  1
  Ta  Ta1  1  0.56660000  0.23340000  0.25000000  1
  Ta  Ta1  1  0.56660000  0.23340000  0.45000000  1
  Ta  Ta1  1  0.56660000  0.23340000  0.65000000  1
  Ta  Ta1  1  0.56660000  0.23340000  0.85000000  1
  Ta  Ta1  1  0.56660000  0.43340000  0.05000000  1
  Ta  Ta1  1  0.56660000  0.43340000  0.25000000  1
  Ta  Ta1  1  0.56660000  0.43340000  0.45000000  1
  Ta  Ta1  1  0.56660000  0.43340000  0.65000000  1
  Ta  Ta1  1  0.56660000  0.43340000  0.85000000  1
  Ta  Ta1  1  0.56660000  0.63340000  0.05000000  1
  Ta  Ta1  1  0.56660000  0.63340000  0.25000000  1
  Ta  Ta1  1  0.56660000  0.63340000  0.45000000  1
  Ta  Ta1  1  0.56660000  0.63340000  0.65000000  1
  Ta  Ta1  1  0.56660000  0.63340000  0.85000000  1
  Ta  Ta1  1  0.56660000  0.83340000  0.05000000  1
  Ta  Ta1  1  0.56660000  0.83340000  0.25000000  1
  Ta  Ta1  1  0.56660000  0.83340000  0.45000000  1
  Ta  Ta1  1  0.56660000  0.83340000  0.65000000  1
  Ta  Ta1  1  0.56660000  0.83340000  0.85000000  1
  Ta  Ta1  1  0.76660000  0.03340000  0.05000000  1
  Ta  Ta1  1  0.76660000  0.03340000  0.25000000  1
  Ta  Ta1  1  0.76660000  0.03340000  0.45000000  1
  Ta  Ta1  1  0.76660000  0.03340000  0.65000000  1
  Ta  Ta1  1  0.76660000  0.03340000  0.85000000  1
  Ta  Ta1  1  0.76660000  0.23340000  0.05000000  1
  Ta  Ta1  1  0.76660000  0.23340000  0.25000000  1
  Ta  Ta1  1  0.76660000  0.23340000  0.45000000  1
  Ta  Ta1  1  0.76660000  0.23340000  0.65000000  1
  Ta  Ta1  1  0.76660000  0.23340000  0.85000000  1
  Ta  Ta1  1  0.76660000  0.43340000  0.05000000  1
  Ta  Ta1  1  0.76660000  0.43340000  0.25000000  1
  Ta  Ta1  1  0.76660000  0.43340000  0.45000000  1
  Ta  Ta1  1  0.76660000  0.43340000  0.65000000  1
  Ta  Ta1  1  0.76660000  0.43340000  0.85000000  1
  Ta  Ta1  1  0.76660000  0.63340000  0.05000000  1
  Ta  Ta1  1  0.76660000  0.63340000  0.25000000  1
  Ta  Ta1  1  0.76660000  0.63340000  0.45000000  1
  Ta  Ta1  1  0.76660000  0.63340000  0.65000000  1
  Ta  Ta1  1  0.76660000  0.63340000  0.85000000  1
  Ta  Ta1  1  0.76660000  0.83340000  0.05000000  1
  Ta  Ta1  1  0.76660000  0.83340000  0.25000000  1
  Ta  Ta1  1  0.76660000  0.83340000  0.45000000  1
  Ta  Ta1  1  0.76660000  0.83340000  0.65000000  1
  Ta  Ta1  1  0.76660000  0.83340000  0.85000000  1
  Ta  Ta1  1  0.96660000  0.03340000  0.05000000  1
  Ta  Ta1  1  0.96660000  0.03340000  0.25000000  1
  Ta  Ta1  1  0.96660000  0.03340000  0.45000000  1
  Ta  Ta1  1  0.96660000  0.03340000  0.65000000  1
  Ta  Ta1  1  0.96660000  0.03340000  0.85000000  1
  Ta  Ta1  1  0.96660000  0.23340000  0.05000000  1
  Ta  Ta1  1  0.96660000  0.23340000  0.25000000  1
  Ta  Ta1  1  0.96660000  0.23340000  0.45000000  1
  Ta  Ta1  1  0.96660000  0.23340000  0.65000000  1
  Ta  Ta1  1  0.96660000  0.23340000  0.85000000  1
  Ta  Ta1  1  0.96660000  0.43340000  0.05000000  1
  Ta  Ta1  1  0.96660000  0.43340000  0.25000000  1
  Ta  Ta1  1  0.96660000  0.43340000  0.45000000  1
  Ta  Ta1  1  0.96660000  0.43340000  0.65000000  1
  Ta  Ta1  1  0.96660000  0.43340000  0.85000000  1
  Ta  Ta1  1  0.96660000  0.63340000  0.05000000  1
  Ta  Ta1  1  0.96660000  0.63340000  0.25000000  1
  Ta  Ta1  1  0.96660000  0.63340000  0.45000000  1
  Ta  Ta1  1  0.96660000  0.63340000  0.65000000  1
  Ta  Ta1  1  0.96660000  0.63340000  0.85000000  1
  Ta  Ta1  1  0.96660000  0.83340000  0.05000000  1
  Ta  Ta1  1  0.96660000  0.83340000  0.25000000  1
  Ta  Ta1  1  0.96660000  0.83340000  0.45000000  1
  Ta  Ta1  1  0.96660000  0.83340000  0.65000000  1
  Ta  Ta1  1  0.96660000  0.83340000  0.85000000  1
  Ta  Ta1  1  0.13320000  0.16660000  0.15000000  1
  Ta  Ta1  1  0.13320000  0.16660000  0.35000000  1
  Ta  Ta1  1  0.13320000  0.16660000  0.55000000  1
  Ta  Ta1  1  0.13320000  0.16660000  0.75000000  1
  Ta  Ta1  1  0.13320000  0.16660000  0.95000000  1
  Ta  Ta1  1  0.13320000  0.36660000  0.15000000  1
  Ta  Ta1  1  0.13320000  0.36660000  0.35000000  1
  Ta  Ta1  1  0.13320000  0.36660000  0.55000000  1
  Ta  Ta1  1  0.13320000  0.36660000  0.75000000  1
  Ta  Ta1  1  0.13320000  0.36660000  0.95000000  1
  Ta  Ta1  1  0.13320000  0.56660000  0.15000000  1
  Ta  Ta1  1  0.13320000  0.56660000  0.35000000  1
  Ta  Ta1  1  0.13320000  0.56660000  0.55000000  1
  Ta  Ta1  1  0.13320000  0.56660000  0.75000000  1
  Ta  Ta1  1  0.13320000  0.56660000  0.95000000  1
  Ta  Ta1  1  0.13320000  0.76660000  0.15000000  1
  Ta  Ta1  1  0.13320000  0.76660000  0.35000000  1
  Ta  Ta1  1  0.13320000  0.76660000  0.55000000  1
  Ta  Ta1  1  0.13320000  0.76660000  0.75000000  1
  Ta  Ta1  1  0.13320000  0.76660000  0.95000000  1
  Ta  Ta1  1  0.13320000  0.96660000  0.15000000  1
  Ta  Ta1  1  0.13320000  0.96660000  0.35000000  1
  Ta  Ta1  1  0.13320000  0.96660000  0.55000000  1
  Ta  Ta1  1  0.13320000  0.96660000  0.75000000  1
  Ta  Ta1  1  0.13320000  0.96660000  0.95000000  1
  Ta  Ta1  1  0.33320000  0.16660000  0.15000000  1
  Ta  Ta1  1  0.33320000  0.16660000  0.35000000  1
  Ta  Ta1  1  0.33320000  0.16660000  0.55000000  1
  Ta  Ta1  1  0.33320000  0.16660000  0.75000000  1
  Ta  Ta1  1  0.33320000  0.16660000  0.95000000  1
  Ta  Ta1  1  0.33320000  0.36660000  0.15000000  1
  Ta  Ta1  1  0.33320000  0.36660000  0.35000000  1
  Ta  Ta1  1  0.33320000  0.36660000  0.55000000  1
  Ta  Ta1  1  0.33320000  0.36660000  0.75000000  1
  Ta  Ta1  1  0.33320000  0.36660000  0.95000000  1
  Ta  Ta1  1  0.33320000  0.56660000  0.15000000  1
  Ta  Ta1  1  0.33320000  0.56660000  0.35000000  1
  Ta  Ta1  1  0.33320000  0.56660000  0.55000000  1
  Ta  Ta1  1  0.33320000  0.56660000  0.75000000  1
  Ta  Ta1  1  0.33320000  0.56660000  0.95000000  1
  Ta  Ta1  1  0.33320000  0.76660000  0.15000000  1
  Ta  Ta1  1  0.33320000  0.76660000  0.35000000  1
  Ta  Ta1  1  0.33320000  0.76660000  0.55000000  1
  Ta  Ta1  1  0.33320000  0.76660000  0.75000000  1
  Ta  Ta1  1  0.33320000  0.76660000  0.95000000  1
  Ta  Ta1  1  0.33320000  0.96660000  0.15000000  1
  Ta  Ta1  1  0.33320000  0.96660000  0.35000000  1
  Ta  Ta1  1  0.33320000  0.96660000  0.55000000  1
  Ta  Ta1  1  0.33320000  0.96660000  0.75000000  1
  Ta  Ta1  1  0.33320000  0.96660000  0.95000000  1
  Ta  Ta1  1  0.53320000  0.16660000  0.15000000  1
  Ta  Ta1  1  0.53320000  0.16660000  0.35000000  1
  Ta  Ta1  1  0.53320000  0.16660000  0.55000000  1
  Ta  Ta1  1  0.53320000  0.16660000  0.75000000  1
  Ta  Ta1  1  0.53320000  0.16660000  0.95000000  1
  Ta  Ta1  1  0.53320000  0.36660000  0.15000000  1
  Ta  Ta1  1  0.53320000  0.36660000  0.35000000  1
  Ta  Ta1  1  0.53320000  0.36660000  0.55000000  1
  Ta  Ta1  1  0.53320000  0.36660000  0.75000000  1
  Ta  Ta1  1  0.53320000  0.36660000  0.95000000  1
  Ta  Ta1  1  0.53320000  0.56660000  0.15000000  1
  Ta  Ta1  1  0.53320000  0.56660000  0.35000000  1
  Ta  Ta1  1  0.53320000  0.56660000  0.55000000  1
  Ta  Ta1  1  0.53320000  0.56660000  0.75000000  1
  Ta  Ta1  1  0.53320000  0.56660000  0.95000000  1
  Ta  Ta1  1  0.53320000  0.76660000  0.15000000  1
  Ta  Ta1  1  0.53320000  0.76660000  0.35000000  1
  Ta  Ta1  1  0.53320000  0.76660000  0.55000000  1
  Ta  Ta1  1  0.53320000  0.76660000  0.75000000  1
  Ta  Ta1  1  0.53320000  0.76660000  0.95000000  1
  Ta  Ta1  1  0.53320000  0.96660000  0.15000000  1
  Ta  Ta1  1  0.53320000  0.96660000  0.35000000  1
  Ta  Ta1  1  0.53320000  0.96660000  0.55000000  1
  Ta  Ta1  1  0.53320000  0.96660000  0.75000000  1
  Ta  Ta1  1  0.53320000  0.96660000  0.95000000  1
  Ta  Ta1  1  0.73320000  0.16660000  0.15000000  1
  Ta  Ta1  1  0.73320000  0.16660000  0.35000000  1
  Ta  Ta1  1  0.73320000  0.16660000  0.55000000  1
  Ta  Ta1  1  0.73320000  0.16660000  0.75000000  1
  Ta  Ta1  1  0.73320000  0.16660000  0.95000000  1
  Ta  Ta1  1  0.73320000  0.36660000  0.15000000  1
  Ta  Ta1  1  0.73320000  0.36660000  0.35000000  1
  Ta  Ta1  1  0.73320000  0.36660000  0.55000000  1
  Ta  Ta1  1  0.73320000  0.36660000  0.75000000  1
  Ta  Ta1  1  0.73320000  0.36660000  0.95000000  1
  Ta  Ta1  1  0.73320000  0.56660000  0.15000000  1
  Ta  Ta1  1  0.73320000  0.56660000  0.35000000  1
  Ta  Ta1  1  0.73320000  0.56660000  0.55000000  1
  Ta  Ta1  1  0.73320000  0.56660000  0.75000000  1
  Ta  Ta1  1  0.73320000  0.56660000  0.95000000  1
  Ta  Ta1  1  0.73320000  0.76660000  0.15000000  1
  Ta  Ta1  1  0.73320000  0.76660000  0.35000000  1
  Ta  Ta1  1  0.73320000  0.76660000  0.55000000  1
  Ta  Ta1  1  0.73320000  0.76660000  0.75000000  1
  Ta  Ta1  1  0.73320000  0.76660000  0.95000000  1
  Ta  Ta1  1  0.73320000  0.96660000  0.15000000  1
  Ta  Ta1  1  0.73320000  0.96660000  0.35000000  1
  Ta  Ta1  1  0.73320000  0.96660000  0.55000000  1
  Ta  Ta1  1  0.73320000  0.96660000  0.75000000  1
  Ta  Ta1  1  0.73320000  0.96660000  0.95000000  1
  Ta  Ta1  1  0.93320000  0.16660000  0.15000000  1
  Ta  Ta1  1  0.93320000  0.16660000  0.35000000  1
  Ta  Ta1  1  0.93320000  0.16660000  0.55000000  1
  Ta  Ta1  1  0.93320000  0.16660000  0.75000000  1
  Ta  Ta1  1  0.93320000  0.16660000  0.95000000  1
  Ta  Ta1  1  0.93320000  0.36660000  0.15000000  1
  Ta  Ta1  1  0.93320000  0.36660000  0.35000000  1
  Ta  Ta1  1  0.93320000  0.36660000  0.55000000  1
  Ta  Ta1  1  0.93320000  0.36660000  0.75000000  1
  Ta  Ta1  1  0.93320000  0.36660000  0.95000000  1
  Ta  Ta1  1  0.93320000  0.56660000  0.15000000  1
  Ta  Ta1  1  0.93320000  0.56660000  0.35000000  1
  Ta  Ta1  1  0.93320000  0.56660000  0.55000000  1
  Ta  Ta1  1  0.93320000  0.56660000  0.75000000  1
  Ta  Ta1  1  0.93320000  0.56660000  0.95000000  1
  Ta  Ta1  1  0.93320000  0.76660000  0.15000000  1
  Ta  Ta1  1  0.93320000  0.76660000  0.35000000  1
  Ta  Ta1  1  0.93320000  0.76660000  0.55000000  1
  Ta  Ta1  1  0.93320000  0.76660000  0.75000000  1
  Ta  Ta1  1  0.93320000  0.76660000  0.95000000  1
  Ta  Ta1  1  0.93320000  0.96660000  0.15000000  1
  Ta  Ta1  1  0.93320000  0.96660000  0.35000000  1
  Ta  Ta1  1  0.93320000  0.96660000  0.55000000  1
  Ta  Ta1  1  0.93320000  0.96660000  0.75000000  1
  Ta  Ta1  1  0.93320000  0.96660000  0.95000000  1
  Co  Co1  1  0.06666667  0.13333333  0.05000000  1
  Co  Co1  1  0.06666667  0.13333333  0.25000000  1
  Co  Co1  1  0.06666667  0.13333333  0.45000000  1
  Co  Co1  1  0.06666667  0.13333333  0.65000000  1
  Co  Co1  1  0.06666667  0.13333333  0.85000000  1
  Co  Co1  1  0.06666667  0.33333333  0.05000000  1
  Co  Co1  1  0.06666667  0.33333333  0.25000000  1
  Co  Co1  1  0.06666667  0.33333333  0.45000000  1
  Co  Co1  1  0.06666667  0.33333333  0.65000000  1
  Co  Co1  1  0.06666667  0.33333333  0.85000000  1
  Co  Co1  1  0.06666667  0.53333333  0.05000000  1
  Co  Co1  1  0.06666667  0.53333333  0.25000000  1
  Co  Co1  1  0.06666667  0.53333333  0.45000000  1
  Co  Co1  1  0.06666667  0.53333333  0.65000000  1
  Co  Co1  1  0.06666667  0.53333333  0.85000000  1
  Co  Co1  1  0.06666667  0.73333333  0.05000000  1
  Co  Co1  1  0.06666667  0.73333333  0.25000000  1
  Co  Co1  1  0.06666667  0.73333333  0.45000000  1
  Co  Co1  1  0.06666667  0.73333333  0.65000000  1
  Co  Co1  1  0.06666667  0.73333333  0.85000000  1
  Co  Co1  1  0.06666667  0.93333333  0.05000000  1
  Co  Co1  1  0.06666667  0.93333333  0.25000000  1
  Co  Co1  1  0.06666667  0.93333333  0.45000000  1
  Co  Co1  1  0.06666667  0.93333333  0.65000000  1
  Co  Co1  1  0.06666667  0.93333333  0.85000000  1
  Co  Co1  1  0.26666667  0.13333333  0.05000000  1
  Co  Co1  1  0.26666667  0.13333333  0.25000000  1
  Co  Co1  1  0.26666667  0.13333333  0.45000000  1
  Co  Co1  1  0.26666667  0.13333333  0.65000000  1
  Co  Co1  1  0.26666667  0.13333333  0.85000000  1
  Co  Co1  1  0.26666667  0.33333333  0.05000000  1
  Co  Co1  1  0.26666667  0.33333333  0.25000000  1
  Co  Co1  1  0.26666667  0.33333333  0.45000000  1
  Co  Co1  1  0.26666667  0.33333333  0.65000000  1
  Co  Co1  1  0.26666667  0.33333333  0.85000000  1
  Co  Co1  1  0.26666667  0.53333333  0.05000000  1
  Co  Co1  1  0.26666667  0.53333333  0.25000000  1
  Co  Co1  1  0.26666667  0.53333333  0.45000000  1
  Co  Co1  1  0.26666667  0.53333333  0.65000000  1
  Co  Co1  1  0.26666667  0.53333333  0.85000000  1
  Co  Co1  1  0.26666667  0.73333333  0.05000000  1
  Co  Co1  1  0.26666667  0.73333333  0.25000000  1
  Co  Co1  1  0.26666667  0.73333333  0.45000000  1
  Co  Co1  1  0.26666667  0.73333333  0.65000000  1
  Co  Co1  1  0.26666667  0.73333333  0.85000000  1
  Co  Co1  1  0.26666667  0.93333333  0.05000000  1
  Co  Co1  1  0.26666667  0.93333333  0.25000000  1
  Co  Co1  1  0.26666667  0.93333333  0.45000000  1
  Co  Co1  1  0.26666667  0.93333333  0.65000000  1
  Co  Co1  1  0.26666667  0.93333333  0.85000000  1
  Co  Co1  1  0.46666667  0.13333333  0.05000000  1
  Co  Co1  1  0.46666667  0.13333333  0.25000000  1
  Co  Co1  1  0.46666667  0.13333333  0.45000000  1
  Co  Co1  1  0.46666667  0.13333333  0.65000000  1
  Co  Co1  1  0.46666667  0.13333333  0.85000000  1
  Co  Co1  1  0.46666667  0.33333333  0.05000000  1
  Co  Co1  1  0.46666667  0.33333333  0.25000000  1
  Co  Co1  1  0.46666667  0.33333333  0.45000000  1
  Co  Co1  1  0.46666667  0.33333333  0.65000000  1
  Co  Co1  1  0.46666667  0.33333333  0.85000000  1
  Co  Co1  1  0.46666667  0.53333333  0.05000000  1
  Co  Co1  1  0.46666667  0.53333333  0.25000000  1
  Co  Co1  1  0.46666667  0.53333333  0.45000000  1
  Co  Co1  1  0.46666667  0.53333333  0.65000000  1
  Co  Co1  1  0.46666667  0.53333333  0.85000000  1
  Co  Co1  1  0.46666667  0.73333333  0.05000000  1
  Co  Co1  1  0.46666667  0.73333333  0.25000000  1
  Co  Co1  1  0.46666667  0.73333333  0.45000000  1
  Co  Co1  1  0.46666667  0.73333333  0.65000000  1
  Co  Co1  1  0.46666667  0.73333333  0.85000000  1
  Co  Co1  1  0.46666667  0.93333333  0.05000000  1
  Co  Co1  1  0.46666667  0.93333333  0.25000000  1
  Co  Co1  1  0.46666667  0.93333333  0.45000000  1
  Co  Co1  1  0.46666667  0.93333333  0.65000000  1
  Co  Co1  1  0.46666667  0.93333333  0.85000000  1
  Co  Co1  1  0.66666667  0.13333333  0.05000000  1
  Co  Co1  1  0.66666667  0.13333333  0.25000000  1
  Co  Co1  1  0.66666667  0.13333333  0.45000000  1
  Co  Co1  1  0.66666667  0.13333333  0.65000000  1
  Co  Co1  1  0.66666667  0.13333333  0.85000000  1
  Co  Co1  1  0.66666667  0.33333333  0.05000000  1
  Co  Co1  1  0.66666667  0.33333333  0.25000000  1
  Co  Co1  1  0.66666667  0.33333333  0.45000000  1
  Co  Co1  1  0.66666667  0.33333333  0.65000000  1
  Co  Co1  1  0.66666667  0.33333333  0.85000000  1
  Co  Co1  1  0.66666667  0.53333333  0.05000000  1
  Co  Co1  1  0.66666667  0.53333333  0.25000000  1
  Co  Co1  1  0.66666667  0.53333333  0.45000000  1
  Co  Co1  1  0.66666667  0.53333333  0.65000000  1
  Co  Co1  1  0.66666667  0.53333333  0.85000000  1
  Co  Co1  1  0.66666667  0.73333333  0.05000000  1
  Co  Co1  1  0.66666667  0.73333333  0.25000000  1
  Co  Co1  1  0.66666667  0.73333333  0.45000000  1
  Co  Co1  1  0.66666667  0.73333333  0.65000000  1
  Co  Co1  1  0.66666667  0.73333333  0.85000000  1
  Co  Co1  1  0.66666667  0.93333333  0.05000000  1
  Co  Co1  1  0.66666667  0.93333333  0.25000000  1
  Co  Co1  1  0.66666667  0.93333333  0.45000000  1
  Co  Co1  1  0.66666667  0.93333333  0.65000000  1
  Co  Co1  1  0.66666667  0.93333333  0.85000000  1
  Co  Co1  1  0.86666667  0.13333333  0.05000000  1
  Co  Co1  1  0.86666667  0.13333333  0.25000000  1
  Co  Co1  1  0.86666667  0.13333333  0.45000000  1
  Co  Co1  1  0.86666667  0.13333333  0.65000000  1
  Co  Co1  1  0.86666667  0.13333333  0.85000000  1
  Co  Co1  1  0.86666667  0.33333333  0.05000000  1
  Co  Co1  1  0.86666667  0.33333333  0.25000000  1
  Co  Co1  1  0.86666667  0.33333333  0.45000000  1
  Co  Co1  1  0.86666667  0.33333333  0.65000000  1
  Co  Co1  1  0.86666667  0.33333333  0.85000000  1
  Co  Co1  1  0.86666667  0.53333333  0.05000000  1
  Co  Co1  1  0.86666667  0.53333333  0.25000000  1
  Co  Co1  1  0.86666667  0.53333333  0.45000000  1
  Co  Co1  1  0.86666667  0.53333333  0.65000000  1
  Co  Co1  1  0.86666667  0.53333333  0.85000000  1
  Co  Co1  1  0.86666667  0.73333333  0.05000000  1
  Co  Co1  1  0.86666667  0.73333333  0.25000000  1
  Co  Co1  1  0.86666667  0.73333333  0.45000000  1
  Co  Co1  1  0.86666667  0.73333333  0.65000000  1
  Co  Co1  1  0.86666667  0.73333333  0.85000000  1
  Co  Co1  1  0.86666667  0.93333333  0.05000000  1
  Co  Co1  1  0.86666667  0.93333333  0.25000000  1
  Co  Co1  1  0.86666667  0.93333333  0.45000000  1
  Co  Co1  1  0.86666667  0.93333333  0.65000000  1
  Co  Co1  1  0.86666667  0.93333333  0.85000000  1
  Co  Co1  1  0.13333333  0.06666667  0.15000000  1
  Co  Co1  1  0.13333333  0.06666667  0.35000000  1
  Co  Co1  1  0.13333333  0.06666667  0.55000000  1
  Co  Co1  1  0.13333333  0.06666667  0.75000000  1
  Co  Co1  1  0.13333333  0.06666667  0.95000000  1
  Co  Co1  1  0.13333333  0.26666667  0.15000000  1
  Co  Co1  1  0.13333333  0.26666667  0.35000000  1
  Co  Co1  1  0.13333333  0.26666667  0.55000000  1
  Co  Co1  1  0.13333333  0.26666667  0.75000000  1
  Co  Co1  1  0.13333333  0.26666667  0.95000000  1
  Co  Co1  1  0.13333333  0.46666667  0.15000000  1
  Co  Co1  1  0.13333333  0.46666667  0.35000000  1
  Co  Co1  1  0.13333333  0.46666667  0.55000000  1
  Co  Co1  1  0.13333333  0.46666667  0.75000000  1
  Co  Co1  1  0.13333333  0.46666667  0.95000000  1
  Co  Co1  1  0.13333333  0.66666667  0.15000000  1
  Co  Co1  1  0.13333333  0.66666667  0.35000000  1
  Co  Co1  1  0.13333333  0.66666667  0.55000000  1
  Co  Co1  1  0.13333333  0.66666667  0.75000000  1
  Co  Co1  1  0.13333333  0.66666667  0.95000000  1
  Co  Co1  1  0.13333333  0.86666667  0.15000000  1
  Co  Co1  1  0.13333333  0.86666667  0.35000000  1
  Co  Co1  1  0.13333333  0.86666667  0.55000000  1
  Co  Co1  1  0.13333333  0.86666667  0.75000000  1
  Co  Co1  1  0.13333333  0.86666667  0.95000000  1
  Co  Co1  1  0.33333333  0.06666667  0.15000000  1
  Co  Co1  1  0.33333333  0.06666667  0.35000000  1
  Co  Co1  1  0.33333333  0.06666667  0.55000000  1
  Co  Co1  1  0.33333333  0.06666667  0.75000000  1
  Co  Co1  1  0.33333333  0.06666667  0.95000000  1
  Co  Co1  1  0.33333333  0.26666667  0.15000000  1
  Co  Co1  1  0.33333333  0.26666667  0.35000000  1
  Co  Co1  1  0.33333333  0.26666667  0.55000000  1
  Co  Co1  1  0.33333333  0.26666667  0.75000000  1
  Co  Co1  1  0.33333333  0.26666667  0.95000000  1
  Co  Co1  1  0.33333333  0.46666667  0.15000000  1
  Co  Co1  1  0.33333333  0.46666667  0.35000000  1
  Co  Co1  1  0.33333333  0.46666667  0.55000000  1
  Co  Co1  1  0.33333333  0.46666667  0.75000000  1
  Co  Co1  1  0.33333333  0.46666667  0.95000000  1
  Co  Co1  1  0.33333333  0.66666667  0.15000000  1
  Co  Co1  1  0.33333333  0.66666667  0.35000000  1
  Co  Co1  1  0.33333333  0.66666667  0.55000000  1
  Co  Co1  1  0.33333333  0.66666667  0.75000000  1
  Co  Co1  1  0.33333333  0.66666667  0.95000000  1
  Co  Co1  1  0.33333333  0.86666667  0.15000000  1
  Co  Co1  1  0.33333333  0.86666667  0.35000000  1
  Co  Co1  1  0.33333333  0.86666667  0.55000000  1
  Co  Co1  1  0.33333333  0.86666667  0.75000000  1
  Co  Co1  1  0.33333333  0.86666667  0.95000000  1
  Co  Co1  1  0.53333333  0.06666667  0.15000000  1
  Co  Co1  1  0.53333333  0.06666667  0.35000000  1
  Co  Co1  1  0.53333333  0.06666667  0.55000000  1
  Co  Co1  1  0.53333333  0.06666667  0.75000000  1
  Co  Co1  1  0.53333333  0.06666667  0.95000000  1
  Co  Co1  1  0.53333333  0.26666667  0.15000000  1
  Co  Co1  1  0.53333333  0.26666667  0.35000000  1
  Co  Co1  1  0.53333333  0.26666667  0.55000000  1
  Co  Co1  1  0.53333333  0.26666667  0.75000000  1
  Co  Co1  1  0.53333333  0.26666667  0.95000000  1
  Co  Co1  1  0.53333333  0.46666667  0.15000000  1
  Co  Co1  1  0.53333333  0.46666667  0.35000000  1
  Co  Co1  1  0.53333333  0.46666667  0.55000000  1
  Co  Co1  1  0.53333333  0.46666667  0.75000000  1
  Co  Co1  1  0.53333333  0.46666667  0.95000000  1
  Co  Co1  1  0.53333333  0.66666667  0.15000000  1
  Co  Co1  1  0.53333333  0.66666667  0.35000000  1
  Co  Co1  1  0.53333333  0.66666667  0.55000000  1
  Co  Co1  1  0.53333333  0.66666667  0.75000000  1
  Co  Co1  1  0.53333333  0.66666667  0.95000000  1
  Co  Co1  1  0.53333333  0.86666667  0.15000000  1
  Co  Co1  1  0.53333333  0.86666667  0.35000000  1
  Co  Co1  1  0.53333333  0.86666667  0.55000000  1
  Co  Co1  1  0.53333333  0.86666667  0.75000000  1
  Co  Co1  1  0.53333333  0.86666667  0.95000000  1
  Co  Co1  1  0.73333333  0.06666667  0.15000000  1
  Co  Co1  1  0.73333333  0.06666667  0.35000000  1
  Co  Co1  1  0.73333333  0.06666667  0.55000000  1
  Co  Co1  1  0.73333333  0.06666667  0.75000000  1
  Co  Co1  1  0.73333333  0.06666667  0.95000000  1
  Co  Co1  1  0.73333333  0.26666667  0.15000000  1
  Co  Co1  1  0.73333333  0.26666667  0.35000000  1
  Co  Co1  1  0.73333333  0.26666667  0.55000000  1
  Co  Co1  1  0.73333333  0.26666667  0.75000000  1
  Co  Co1  1  0.73333333  0.26666667  0.95000000  1
  Co  Co1  1  0.73333333  0.46666667  0.15000000  1
  Co  Co1  1  0.73333333  0.46666667  0.35000000  1
  Co  Co1  1  0.73333333  0.46666667  0.55000000  1
  Co  Co1  1  0.73333333  0.46666667  0.75000000  1
  Co  Co1  1  0.73333333  0.46666667  0.95000000  1
  Co  Co1  1  0.73333333  0.66666667  0.15000000  1
  Co  Co1  1  0.73333333  0.66666667  0.35000000  1
  Co  Co1  1  0.73333333  0.66666667  0.55000000  1
  Co  Co1  1  0.73333333  0.66666667  0.75000000  1
  Co  Co1  1  0.73333333  0.66666667  0.95000000  1
  Co  Co1  1  0.73333333  0.86666667  0.15000000  1
  Co  Co1  1  0.73333333  0.86666667  0.35000000  1
  Co  Co1  1  0.73333333  0.86666667  0.55000000  1
  Co  Co1  1  0.73333333  0.86666667  0.75000000  1
  Co  Co1  1  0.73333333  0.86666667  0.95000000  1
  Co  Co1  1  0.93333333  0.06666667  0.15000000  1
  Co  Co1  1  0.93333333  0.06666667  0.35000000  1
  Co  Co1  1  0.93333333  0.06666667  0.55000000  1
  Co  Co1  1  0.93333333  0.06666667  0.75000000  1
  Co  Co1  1  0.93333333  0.06666667  0.95000000  1
  Co  Co1  1  0.93333333  0.26666667  0.15000000  1
  Co  Co1  1  0.93333333  0.26666667  0.35000000  1
  Co  Co1  1  0.93333333  0.26666667  0.55000000  1
  Co  Co1  1  0.93333333  0.26666667  0.75000000  1
  Co  Co1  1  0.93333333  0.26666667  0.95000000  1
  Co  Co1  1  0.93333333  0.46666667  0.15000000  1
  Co  Co1  1  0.93333333  0.46666667  0.35000000  1
  Co  Co1  1  0.93333333  0.46666667  0.55000000  1
  Co  Co1  1  0.93333333  0.46666667  0.75000000  1
  Co  Co1  1  0.93333333  0.46666667  0.95000000  1
  Co  Co1  1  0.93333333  0.66666667  0.15000000  1
  Co  Co1  1  0.93333333  0.66666667  0.35000000  1
  Co  Co1  1  0.93333333  0.66666667  0.55000000  1
  Co  Co1  1  0.93333333  0.66666667  0.75000000  1
  Co  Co1  1  0.93333333  0.66666667  0.95000000  1
  Co  Co1  1  0.93333333  0.86666667  0.15000000  1
  Co  Co1  1  0.93333333  0.86666667  0.35000000  1
  Co  Co1  1  0.93333333  0.86666667  0.55000000  1
  Co  Co1  1  0.93333333  0.86666667  0.75000000  1
  Co  Co1  1  0.93333333  0.86666667  0.95000000  1
