# generated using pymatgen
data_TaCo2
_symmetry_space_group_name_H-M   'P 1'
_cell_length_a   23.80000000
_cell_length_b   23.80000000
_cell_length_c   77.50000000
_cell_angle_alpha   90.00000000
_cell_angle_beta   90.00000000
_cell_angle_gamma   90.00000000
_symmetry_Int_Tables_number   1
_chemical_formula_structural   TaCo2
_chemical_formula_sum   'Ta1000 Co2000'
_cell_volume   43899.10000000
_cell_formula_units_Z   1000
loop_
 _symmetry_equiv_pos_site_id
 _symmetry_equiv_pos_as_xyz
  1  'x, y, z'
loop_
 _atom_site_type_symbol
 _atom_site_label
 _atom_site_symmetry_multiplicity
 _atom_site_fract_x
 _atom_site_fract_y
 _atom_site_fract_z
 _atom_site_occupancy
  Ta  Ta1  1  0.00000000  0.00000000  0.01880000  1
  Ta  Ta1  1  0.00000000  0.00000000  0.21880000  1
  Ta  Ta1  1  0.00000000  0.00000000  0.41880000  1
  Ta  Ta1  1  0.00000000  0.00000000  0.61880000  1
  Ta  Ta1  1  0.00000000  0.00000000  0.81880000  1
  Ta  Ta1  1  0.00000000  0.20000000  0.01880000  1
  Ta  Ta1  1  0.00000000  0.20000000  0.21880000  1
  Ta  Ta1  1  0.00000000  0.20000000  0.41880000  1
  Ta  Ta1  1  0.00000000  0.20000000  0.61880000  1
  Ta  Ta1  1  0.00000000  0.20000000  0.81880000  1
  Ta  Ta1  1  0.00000000  0.40000000  0.01880000  1
  Ta  Ta1  1  0.00000000  0.40000000  0.21880000  1
  Ta  Ta1  1  0.00000000  0.40000000  0.41880000  1
  Ta  Ta1  1  0.00000000  0.40000000  0.61880000  1
  Ta  Ta1  1  0.00000000  0.40000000  0.81880000  1
  Ta  Ta1  1  0.00000000  0.60000000  0.01880000  1
  Ta  Ta1  1  0.00000000  0.60000000  0.21880000  1
  Ta  Ta1  1  0.00000000  0.60000000  0.41880000  1
  Ta  Ta1  1  0.00000000  0.60000000  0.61880000  1
  Ta  Ta1  1  0.00000000  0.60000000  0.81880000  1
  Ta  Ta1  1  0.00000000  0.80000000  0.01880000  1
  Ta  Ta1  1  0.00000000  0.80000000  0.21880000  1
  Ta  Ta1  1  0.00000000  0.80000000  0.41880000  1
  Ta  Ta1  1  0.00000000  0.80000000  0.61880000  1
  Ta  Ta1  1  0.00000000  0.80000000  0.81880000  1
  Ta  Ta1  1  0.20000000  0.00000000  0.01880000  1
  Ta  Ta1  1  0.20000000  0.00000000  0.21880000  1
  Ta  Ta1  1  0.20000000  0.00000000  0.41880000  1
  Ta  Ta1  1  0.20000000  0.00000000  0.61880000  1
  Ta  Ta1  1  0.20000000  0.00000000  0.81880000  1
  Ta  Ta1  1  0.20000000  0.20000000  0.01880000  1
  Ta  Ta1  1  0.20000000  0.20000000  0.21880000  1
  Ta  Ta1  1  0.20000000  0.20000000  0.41880000  1
  Ta  Ta1  1  0.20000000  0.20000000  0.61880000  1
  Ta  Ta1  1  0.20000000  0.20000000  0.81880000  1
  Ta  Ta1  1  0.20000000  0.40000000  0.01880000  1
  Ta  Ta1  1  0.20000000  0.40000000  0.21880000  1
  Ta  Ta1  1  0.20000000  0.40000000  0.41880000  1
  Ta  Ta1  1  0.20000000  0.40000000  0.61880000  1
  Ta  Ta1  1  0.20000000  0.40000000  0.81880000  1
  Ta  Ta1  1  0.20000000  0.60000000  0.01880000  1
  Ta  Ta1  1  0.20000000  0.60000000  0.21880000  1
  Ta  Ta1  1  0.20000000  0.60000000  0.41880000  1
  Ta  Ta1  1  0.20000000  0.60000000  0.61880000  1
  Ta  Ta1  1  0.20000000  0.60000000  0.81880000  1
  Ta  Ta1  1  0.20000000  0.80000000  0.01880000  1
  Ta  Ta1  1  0.20000000  0.80000000  0.21880000  1
  Ta  Ta1  1  0.20000000  0.80000000  0.41880000  1
  Ta  Ta1  1  0.20000000  0.80000000  0.61880000  1
  Ta  Ta1  1  0.20000000  0.80000000  0.81880000  1
  Ta  Ta1  1  0.40000000  0.00000000  0.01880000  1
  Ta  Ta1  1  0.40000000  0.00000000  0.21880000  1
  Ta  Ta1  1  0.40000000  0.00000000  0.41880000  1
  Ta  Ta1  1  0.40000000  0.00000000  0.61880000  1
  Ta  Ta1  1  0.40000000  0.00000000  0.81880000  1
  Ta  Ta1  1  0.40000000  0.20000000  0.01880000  1
  Ta  Ta1  1  0.40000000  0.20000000  0.21880000  1
  Ta  Ta1  1  0.40000000  0.20000000  0.41880000  1
  Ta  Ta1  1  0.40000000  0.20000000  0.61880000  1
  Ta  Ta1  1  0.40000000  0.20000000  0.81880000  1
  Ta  Ta1  1  0.40000000  0.40000000  0.01880000  1
  Ta  Ta1  1  0.40000000  0.40000000  0.21880000  1
  Ta  Ta1  1  0.40000000  0.40000000  0.41880000  1
  Ta  Ta1  1  0.40000000  0.40000000  0.61880000  1
  Ta  Ta1  1  0.40000000  0.40000000  0.81880000  1
  Ta  Ta1  1  0.40000000  0.60000000  0.01880000  1
  Ta  Ta1  1  0.40000000  0.60000000  0.21880000  1
  Ta  Ta1  1  0.40000000  0.60000000  0.41880000  1
  Ta  Ta1  1  0.40000000  0.60000000  0.61880000  1
  Ta  Ta1  1  0.40000000  0.60000000  0.81880000  1
  Ta  Ta1  1  0.40000000  0.80000000  0.01880000  1
  Ta  Ta1  1  0.40000000  0.80000000  0.21880000  1
  Ta  Ta1  1  0.40000000  0.80000000  0.41880000  1
  Ta  Ta1  1  0.40000000  0.80000000  0.61880000  1
  Ta  Ta1  1  0.40000000  0.80000000  0.81880000  1
  Ta  Ta1  1  0.60000000  0.00000000  0.01880000  1
  Ta  Ta1  1  0.60000000  0.00000000  0.21880000  1
  Ta  Ta1  1  0.60000000  0.00000000  0.41880000  1
  Ta  Ta1  1  0.60000000  0.00000000  0.61880000  1
  Ta  Ta1  1  0.60000000  0.00000000  0.81880000  1
  Ta  Ta1  1  0.60000000  0.20000000  0.01880000  1
  Ta  Ta1  1  0.60000000  0.20000000  0.21880000  1
  Ta  Ta1  1  0.60000000  0.20000000  0.41880000  1
  Ta  Ta1  1  0.60000000  0.20000000  0.61880000  1
  Ta  Ta1  1  0.60000000  0.20000000  0.81880000  1
  Ta  Ta1  1  0.60000000  0.40000000  0.01880000  1
  Ta  Ta1  1  0.60000000  0.40000000  0.21880000  1
  Ta  Ta1  1  0.60000000  0.40000000  0.41880000  1
  Ta  Ta1  1  0.60000000  0.40000000  0.61880000  1
  Ta  Ta1  1  0.60000000  0.40000000  0.81880000  1
  Ta  Ta1  1  0.60000000  0.60000000  0.01880000  1
  Ta  Ta1  1  0.60000000  0.60000000  0.21880000  1
  Ta  Ta1  1  0.60000000  0.60000000  0.41880000  1
  Ta  Ta1  1  0.60000000  0.60000000  0.61880000  1
  Ta  Ta1  1  0.60000000  0.60000000  0.81880000  1
  Ta  Ta1  1  0.60000000  0.80000000  0.01880000  1
  Ta  Ta1  1  0.60000000  0.80000000  0.21880000  1
  Ta  Ta1  1  0.60000000  0.80000000  0.41880000  1
  Ta  Ta1  1  0.60000000  0.80000000  0.61880000  1
  Ta  Ta1  1  0.60000000  0.80000000  0.81880000  1
  Ta  Ta1  1  0.80000000  0.00000000  0.01880000  1
  Ta  Ta1  1  0.80000000  0.00000000  0.21880000  1
  Ta  Ta1  1  0.80000000  0.00000000  0.41880000  1
  Ta  Ta1  1  0.80000000  0.00000000  0.61880000  1
  Ta  Ta1  1  0.80000000  0.00000000  0.81880000  1
  Ta  Ta1  1  0.80000000  0.20000000  0.01880000  1
  Ta  Ta1  1  0.80000000  0.20000000  0.21880000  1
  Ta  Ta1  1  0.80000000  0.20000000  0.41880000  1
  Ta  Ta1  1  0.80000000  0.20000000  0.61880000  1
  Ta  Ta1  1  0.80000000  0.20000000  0.81880000  1
  Ta  Ta1  1  0.80000000  0.40000000  0.01880000  1
  Ta  Ta1  1  0.80000000  0.40000000  0.21880000  1
  Ta  Ta1  1  0.80000000  0.40000000  0.41880000  1
  Ta  Ta1  1  0.80000000  0.40000000  0.61880000  1
  Ta  Ta1  1  0.80000000  0.40000000  0.81880000  1
  Ta  Ta1  1  0.80000000  0.60000000  0.01880000  1
  Ta  Ta1  1  0.80000000  0.60000000  0.21880000  1
  Ta  Ta1  1  0.80000000  0.60000000  0.41880000  1
  Ta  Ta1  1  0.80000000  0.60000000  0.61880000  1
  Ta  Ta1  1  0.80000000  0.60000000  0.81880000  1
  Ta  Ta1  1  0.80000000  0.80000000  0.01880000  1
  Ta  Ta1  1  0.80000000  0.80000000  0.21880000  1
  Ta  Ta1  1  0.80000000  0.80000000  0.41880000  1
  Ta  Ta1  1  0.80000000  0.80000000  0.61880000  1
  Ta  Ta1  1  0.80000000  0.80000000  0.81880000  1
  Ta  Ta1  1  0.00000000  0.00000000  0.11880000  1
  Ta  Ta1  1  0.00000000  0.00000000  0.31880000  1
  Ta  Ta1  1  0.00000000  0.00000000  0.51880000  1
  Ta  Ta1  1  0.00000000  0.00000000  0.71880000  1
  Ta  Ta1  1  0.00000000  0.00000000  0.91880000  1
  Ta  Ta1  1  0.00000000  0.20000000  0.11880000  1
  Ta  Ta1  1  0.00000000  0.20000000  0.31880000  1
  Ta  Ta1  1  0.00000000  0.20000000  0.51880000  1
  Ta  Ta1  1  0.00000000  0.20000000  0.71880000  1
  Ta  Ta1  1  0.00000000  0.20000000  0.91880000  1
  Ta  Ta1  1  0.00000000  0.40000000  0.11880000  1
  Ta  Ta1  1  0.00000000  0.40000000  0.31880000  1
  Ta  Ta1  1  0.00000000  0.40000000  0.51880000  1
  Ta  Ta1  1  0.00000000  0.40000000  0.71880000  1
  Ta  Ta1  1  0.00000000  0.40000000  0.91880000  1
  Ta  Ta1  1  0.00000000  0.60000000  0.11880000  1
  Ta  Ta1  1  0.00000000  0.60000000  0.31880000  1
  Ta  Ta1  1  0.00000000  0.60000000  0.51880000  1
  Ta  Ta1  1  0.00000000  0.60000000  0.71880000  1
  Ta  Ta1  1  0.00000000  0.60000000  0.91880000  1
  Ta  Ta1  1  0.00000000  0.80000000  0.11880000  1
  Ta  Ta1  1  0.00000000  0.80000000  0.31880000  1
  Ta  Ta1  1  0.00000000  0.80000000  0.51880000  1
  Ta  Ta1  1  0.00000000  0.80000000  0.71880000  1
  Ta  Ta1  1  0.00000000  0.80000000  0.91880000  1
  Ta  Ta1  1  0.20000000  0.00000000  0.11880000  1
  Ta  Ta1  1  0.20000000  0.00000000  0.31880000  1
  Ta  Ta1  1  0.20000000  0.00000000  0.51880000  1
  Ta  Ta1  1  0.20000000  0.00000000  0.71880000  1
  Ta  Ta1  1  0.20000000  0.00000000  0.91880000  1
  Ta  Ta1  1  0.20000000  0.20000000  0.11880000  1
  Ta  Ta1  1  0.20000000  0.20000000  0.31880000  1
  Ta  Ta1  1  0.20000000  0.20000000  0.51880000  1
  Ta  Ta1  1  0.20000000  0.20000000  0.71880000  1
  Ta  Ta1  1  0.20000000  0.20000000  0.91880000  1
  Ta  Ta1  1  0.20000000  0.40000000  0.11880000  1
  Ta  Ta1  1  0.20000000  0.40000000  0.31880000  1
  Ta  Ta1  1  0.20000000  0.40000000  0.51880000  1
  Ta  Ta1  1  0.20000000  0.40000000  0.71880000  1
  Ta  Ta1  1  0.20000000  0.40000000  0.91880000  1
  Ta  Ta1  1  0.20000000  0.60000000  0.11880000  1
  Ta  Ta1  1  0.20000000  0.60000000  0.31880000  1
  Ta  Ta1  1  0.20000000  0.60000000  0.51880000  1
  Ta  Ta1  1  0.20000000  0.60000000  0.71880000  1
  Ta  Ta1  1  0.20000000  0.60000000  0.91880000  1
  Ta  Ta1  1  0.20000000  0.80000000  0.11880000  1
  Ta  Ta1  1  0.20000000  0.80000000  0.31880000  1
  Ta  Ta1  1  0.20000000  0.80000000  0.51880000  1
  Ta  Ta1  1  0.20000000  0.80000000  0.71880000  1
  Ta  Ta1  1  0.20000000  0.80000000  0.91880000  1
  Ta  Ta1  1  0.40000000  0.00000000  0.11880000  1
  Ta  Ta1  1  0.40000000  0.00000000  0.31880000  1
  Ta  Ta1  1  0.40000000  0.00000000  0.51880000  1
  Ta  Ta1  1  0.40000000  0.00000000  0.71880000  1
  Ta  Ta1  1  0.40000000  0.00000000  0.91880000  1
  Ta  Ta1  1  0.40000000  0.20000000  0.11880000  1
  Ta  Ta1  1  0.40000000  0.20000000  0.31880000  1
  Ta  Ta1  1  0.40000000  0.20000000  0.51880000  1
  Ta  Ta1  1  0.40000000  0.20000000  0.71880000  1
  Ta  Ta1  1  0.40000000  0.20000000  0.91880000  1
  Ta  Ta1  1  0.40000000  0.40000000  0.11880000  1
  Ta  Ta1  1  0.40000000  0.40000000  0.31880000  1
  Ta  Ta1  1  0.40000000  0.40000000  0.51880000  1
  Ta  Ta1  1  0.40000000  0.40000000  0.71880000  1
  Ta  Ta1  1  0.40000000  0.40000000  0.91880000  1
  Ta  Ta1  1  0.40000000  0.60000000  0.11880000  1
  Ta  Ta1  1  0.40000000  0.60000000  0.31880000  1
  Ta  Ta1  1  0.40000000  0.60000000  0.51880000  1
  Ta  Ta1  1  0.40000000  0.60000000  0.71880000  1
  Ta  Ta1  1  0.40000000  0.60000000  0.91880000  1
  Ta  Ta1  1  0.40000000  0.80000000  0.11880000  1
  Ta  Ta1  1  0.40000000  0.80000000  0.31880000  1
  Ta  Ta1  1  0.40000000  0.80000000  0.51880000  1
  Ta  Ta1  1  0.40000000  0.80000000  0.71880000  1
  Ta  Ta1  1  0.40000000  0.80000000  0.91880000  1
  Ta  Ta1  1  0.60000000  0.00000000  0.11880000  1
  Ta  Ta1  1  0.60000000  0.00000000  0.31880000  1
  Ta  Ta1  1  0.60000000  0.00000000  0.51880000  1
  Ta  Ta1  1  0.60000000  0.00000000  0.71880000  1
  Ta  Ta1  1  0.60000000  0.00000000  0.91880000  1
  Ta  Ta1  1  0.60000000  0.20000000  0.11880000  1
  Ta  Ta1  1  0.60000000  0.20000000  0.31880000  1
  Ta  Ta1  1  0.60000000  0.20000000  0.51880000  1
  Ta  Ta1  1  0.60000000  0.20000000  0.71880000  1
  Ta  Ta1  1  0.60000000  0.20000000  0.91880000  1
  Ta  Ta1  1  0.60000000  0.40000000  0.11880000  1
  Ta  Ta1  1  0.60000000  0.40000000  0.31880000  1
  Ta  Ta1  1  0.60000000  0.40000000  0.51880000  1
  Ta  Ta1  1  0.60000000  0.40000000  0.71880000  1
  Ta  Ta1  1  0.60000000  0.40000000  0.91880000  1
  Ta  Ta1  1  0.60000000  0.60000000  0.11880000  1
  Ta  Ta1  1  0.60000000  0.60000000  0.31880000  1
  Ta  Ta1  1  0.60000000  0.60000000  0.51880000  1
  Ta  Ta1  1  0.60000000  0.60000000  0.71880000  1
  Ta  Ta1  1  0.60000000  0.60000000  0.91880000  1
  Ta  Ta1  1  0.60000000  0.80000000  0.11880000  1
  Ta  Ta1  1  0.60000000  0.80000000  0.31880000  1
  Ta  Ta1  1  0.60000000  0.80000000  0.51880000  1
  Ta  Ta1  1  0.60000000  0.80000000  0.71880000  1
  Ta  Ta1  1  0.60000000  0.80000000  0.91880000  1
  Ta  Ta1  1  0.80000000  0.00000000  0.11880000  1
  Ta  Ta1  1  0.80000000  0.00000000  0.31880000  1
  Ta  Ta1  1  0.80000000  0.00000000  0.51880000  1
  Ta  Ta1  1  0.80000000  0.00000000  0.71880000  1
  Ta  Ta1  1  0.80000000  0.00000000  0.91880000  1
  Ta  Ta1  1  0.80000000  0.20000000  0.11880000  1
  Ta  Ta1  1  0.80000000  0.20000000  0.31880000  1
  Ta  Ta1  1  0.80000000  0.20000000  0.51880000  1
  Ta  Ta1  1  0.80000000  0.20000000  0.71880000  1
  Ta  Ta1  1  0.80000000  0.20000000  0.91880000  1
  Ta  Ta1  1  0.80000000  0.40000000  0.11880000  1
  Ta  Ta1  1  0.80000000  0.40000000  0.31880000  1
  Ta  Ta1  1  0.80000000  0.40000000  0.51880000  1
  Ta  Ta1  1  0.80000000  0.40000000  0.71880000  1
  Ta  Ta1  1  0.80000000  0.40000000  0.91880000  1
  Ta  Ta1  1  0.80000000  0.60000000  0.11880000  1
  Ta  Ta1  1  0.80000000  0.60000000  0.31880000  1
  Ta  Ta1  1  0.80000000  0.60000000  0.51880000  1
  Ta  Ta1  1  0.80000000  0.60000000  0.71880000  1
  Ta  Ta1  1  0.80000000  0.60000000  0.91880000  1
  Ta  Ta1  1  0.80000000  0.80000000  0.11880000  1
  Ta  Ta1  1  0.80000000  0.80000000  0.31880000  1
  Ta  Ta1  1  0.80000000  0.80000000  0.51880000  1
  Ta  Ta1  1  0.80000000  0.80000000  0.71880000  1
  Ta  Ta1  1  0.80000000  0.80000000  0.91880000  1
  Ta  Ta1  1  0.00000000  0.00000000  0.08120000  1
  Ta  Ta1  1  0.00000000  0.00000000  0.28120000  1
  Ta  Ta1  1  0.00000000  0.00000000  0.48120000  1
  Ta  Ta1  1  0.00000000  0.00000000  0.68120000  1
  Ta  Ta1  1  0.00000000  0.00000000  0.88120000  1
  Ta  Ta1  1  0.00000000  0.20000000  0.08120000  1
  Ta  Ta1  1  0.00000000  0.20000000  0.28120000  1
  Ta  Ta1  1  0.00000000  0.20000000  0.48120000  1
  Ta  Ta1  1  0.00000000  0.20000000  0.68120000  1
  Ta  Ta1  1  0.00000000  0.20000000  0.88120000  1
  Ta  Ta1  1  0.00000000  0.40000000  0.08120000  1
  Ta  Ta1  1  0.00000000  0.40000000  0.28120000  1
  Ta  Ta1  1  0.00000000  0.40000000  0.48120000  1
  Ta  Ta1  1  0.00000000  0.40000000  0.68120000  1
  Ta  Ta1  1  0.00000000  0.40000000  0.88120000  1
  Ta  Ta1  1  0.00000000  0.60000000  0.08120000  1
  Ta  Ta1  1  0.00000000  0.60000000  0.28120000  1
  Ta  Ta1  1  0.00000000  0.60000000  0.48120000  1
  Ta  Ta1  1  0.00000000  0.60000000  0.68120000  1
  Ta  Ta1  1  0.00000000  0.60000000  0.88120000  1
  Ta  Ta1  1  0.00000000  0.80000000  0.08120000  1
  Ta  Ta1  1  0.00000000  0.80000000  0.28120000  1
  Ta  Ta1  1  0.00000000  0.80000000  0.48120000  1
  Ta  Ta1  1  0.00000000  0.80000000  0.68120000  1
  Ta  Ta1  1  0.00000000  0.80000000  0.88120000  1
  Ta  Ta1  1  0.20000000  0.00000000  0.08120000  1
  Ta  Ta1  1  0.20000000  0.00000000  0.28120000  1
  Ta  Ta1  1  0.20000000  0.00000000  0.48120000  1
  Ta  Ta1  1  0.20000000  0.00000000  0.68120000  1
  Ta  Ta1  1  0.20000000  0.00000000  0.88120000  1
  Ta  Ta1  1  0.20000000  0.20000000  0.08120000  1
  Ta  Ta1  1  0.20000000  0.20000000  0.28120000  1
  Ta  Ta1  1  0.20000000  0.20000000  0.48120000  1
  Ta  Ta1  1  0.20000000  0.20000000  0.68120000  1
  Ta  Ta1  1  0.20000000  0.20000000  0.88120000  1
  Ta  Ta1  1  0.20000000  0.40000000  0.08120000  1
  Ta  Ta1  1  0.20000000  0.40000000  0.28120000  1
  Ta  Ta1  1  0.20000000  0.40000000  0.48120000  1
  Ta  Ta1  1  0.20000000  0.40000000  0.68120000  1
  Ta  Ta1  1  0.20000000  0.40000000  0.88120000  1
  Ta  Ta1  1  0.20000000  0.60000000  0.08120000  1
  Ta  Ta1  1  0.20000000  0.60000000  0.28120000  1
  Ta  Ta1  1  0.20000000  0.60000000  0.48120000  1
  Ta  Ta1  1  0.20000000  0.60000000  0.68120000  1
  Ta  Ta1  1  0.20000000  0.60000000  0.88120000  1
  Ta  Ta1  1  0.20000000  0.80000000  0.08120000  1
  Ta  Ta1  1  0.20000000  0.80000000  0.28120000  1
  Ta  Ta1  1  0.20000000  0.80000000  0.48120000  1
  Ta  Ta1  1  0.20000000  0.80000000  0.68120000  1
  Ta  Ta1  1  0.20000000  0.80000000  0.88120000  1
  Ta  Ta1  1  0.40000000  0.00000000  0.08120000  1
  Ta  Ta1  1  0.40000000  0.00000000  0.28120000  1
  Ta  Ta1  1  0.40000000  0.00000000  0.48120000  1
  Ta  Ta1  1  0.40000000  0.00000000  0.68120000  1
  Ta  Ta1  1  0.40000000  0.00000000  0.88120000  1
  Ta  Ta1  1  0.40000000  0.20000000  0.08120000  1
  Ta  Ta1  1  0.40000000  0.20000000  0.28120000  1
  Ta  Ta1  1  0.40000000  0.20000000  0.48120000  1
  Ta  Ta1  1  0.40000000  0.20000000  0.68120000  1
  Ta  Ta1  1  0.40000000  0.20000000  0.88120000  1
  Ta  Ta1  1  0.40000000  0.40000000  0.08120000  1
  Ta  Ta1  1  0.40000000  0.40000000  0.28120000  1
  Ta  Ta1  1  0.40000000  0.40000000  0.48120000  1
  Ta  Ta1  1  0.40000000  0.40000000  0.68120000  1
  Ta  Ta1  1  0.40000000  0.40000000  0.88120000  1
  Ta  Ta1  1  0.40000000  0.60000000  0.08120000  1
  Ta  Ta1  1  0.40000000  0.60000000  0.28120000  1
  Ta  Ta1  1  0.40000000  0.60000000  0.48120000  1
  Ta  Ta1  1  0.40000000  0.60000000  0.68120000  1
  Ta  Ta1  1  0.40000000  0.60000000  0.88120000  1
  Ta  Ta1  1  0.40000000  0.80000000  0.08120000  1
  Ta  Ta1  1  0.40000000  0.80000000  0.28120000  1
  Ta  Ta1  1  0.40000000  0.80000000  0.48120000  1
  Ta  Ta1  1  0.40000000  0.80000000  0.68120000  1
  Ta  Ta1  1  0.40000000  0.80000000  0.88120000  1
  Ta  Ta1  1  0.60000000  0.00000000  0.08120000  1
  Ta  Ta1  1  0.60000000  0.00000000  0.28120000  1
  Ta  Ta1  1  0.60000000  0.00000000  0.48120000  1
  Ta  Ta1  1  0.60000000  0.00000000  0.68120000  1
  Ta  Ta1  1  0.60000000  0.00000000  0.88120000  1
  Ta  Ta1  1  0.60000000  0.20000000  0.08120000  1
  Ta  Ta1  1  0.60000000  0.20000000  0.28120000  1
  Ta  Ta1  1  0.60000000  0.20000000  0.48120000  1
  Ta  Ta1  1  0.60000000  0.20000000  0.68120000  1
  Ta  Ta1  1  0.60000000  0.20000000  0.88120000  1
  Ta  Ta1  1  0.60000000  0.40000000  0.08120000  1
  Ta  Ta1  1  0.60000000  0.40000000  0.28120000  1
  Ta  Ta1  1  0.60000000  0.40000000  0.48120000  1
  Ta  Ta1  1  0.60000000  0.40000000  0.68120000  1
  Ta  Ta1  1  0.60000000  0.40000000  0.88120000  1
  Ta  Ta1  1  0.60000000  0.60000000  0.08120000  1
  Ta  Ta1  1  0.60000000  0.60000000  0.28120000  1
  Ta  Ta1  1  0.60000000  0.60000000  0.48120000  1
  Ta  Ta1  1  0.60000000  0.60000000  0.68120000  1
  Ta  Ta1  1  0.60000000  0.60000000  0.88120000  1
  Ta  Ta1  1  0.60000000  0.80000000  0.08120000  1
  Ta  Ta1  1  0.60000000  0.80000000  0.28120000  1
  Ta  Ta1  1  0.60000000  0.80000000  0.48120000  1
  Ta  Ta1  1  0.60000000  0.80000000  0.68120000  1
  Ta  Ta1  1  0.60000000  0.80000000  0.88120000  1
  Ta  Ta1  1  0.80000000  0.00000000  0.08120000  1
  Ta  Ta1  1  0.80000000  0.00000000  0.28120000  1
  Ta  Ta1  1  0.80000000  0.00000000  0.48120000  1
  Ta  Ta1  1  0.80000000  0.00000000  0.68120000  1
  Ta  Ta1  1  0.80000000  0.00000000  0.88120000  1
  Ta  Ta1  1  0.80000000  0.20000000  0.08120000  1
  Ta  Ta1  1  0.80000000  0.20000000  0.28120000  1
  Ta  Ta1  1  0.80000000  0.20000000  0.48120000  1
  Ta  Ta1  1  0.80000000  0.20000000  0.68120000  1
  Ta  Ta1  1  0.80000000  0.20000000  0.88120000  1
  Ta  Ta1  1  0.80000000  0.40000000  0.08120000  1
  Ta  Ta1  1  0.80000000  0.40000000  0.28120000  1
  Ta  Ta1  1  0.80000000  0.40000000  0.48120000  1
  Ta  Ta1  1  0.80000000  0.40000000  0.68120000  1
  Ta  Ta1  1  0.80000000  0.40000000  0.88120000  1
  Ta  Ta1  1  0.80000000  0.60000000  0.08120000  1
  Ta  Ta1  1  0.80000000  0.60000000  0.28120000  1
  Ta  Ta1  1  0.80000000  0.60000000  0.48120000  1
  Ta  Ta1  1  0.80000000  0.60000000  0.68120000  1
  Ta  Ta1  1  0.80000000  0.60000000  0.88120000  1
  Ta  Ta1  1  0.80000000  0.80000000  0.08120000  1
  Ta  Ta1  1  0.80000000  0.80000000  0.28120000  1
  Ta  Ta1  1  0.80000000  0.80000000  0.48120000  1
  Ta  Ta1  1  0.80000000  0.80000000  0.68120000  1
  Ta  Ta1  1  0.80000000  0.80000000  0.88120000  1
  Ta  Ta1  1  0.00000000  0.00000000  0.18120000  1
  Ta  Ta1  1  0.00000000  0.00000000  0.38120000  1
  Ta  Ta1  1  0.00000000  0.00000000  0.58120000  1
  Ta  Ta1  1  0.00000000  0.00000000  0.78120000  1
  Ta  Ta1  1  0.00000000  0.00000000  0.98120000  1
  Ta  Ta1  1  0.00000000  0.20000000  0.18120000  1
  Ta  Ta1  1  0.00000000  0.20000000  0.38120000  1
  Ta  Ta1  1  0.00000000  0.20000000  0.58120000  1
  Ta  Ta1  1  0.00000000  0.20000000  0.78120000  1
  Ta  Ta1  1  0.00000000  0.20000000  0.98120000  1
  Ta  Ta1  1  0.00000000  0.40000000  0.18120000  1
  Ta  Ta1  1  0.00000000  0.40000000  0.38120000  1
  Ta  Ta1  1  0.00000000  0.40000000  0.58120000  1
  Ta  Ta1  1  0.00000000  0.40000000  0.78120000  1
  Ta  Ta1  1  0.00000000  0.40000000  0.98120000  1
  Ta  Ta1  1  0.00000000  0.60000000  0.18120000  1
  Ta  Ta1  1  0.00000000  0.60000000  0.38120000  1
  Ta  Ta1  1  0.00000000  0.60000000  0.58120000  1
  Ta  Ta1  1  0.00000000  0.60000000  0.78120000  1
  Ta  Ta1  1  0.00000000  0.60000000  0.98120000  1
  Ta  Ta1  1  0.00000000  0.80000000  0.18120000  1
  Ta  Ta1  1  0.00000000  0.80000000  0.38120000  1
  Ta  Ta1  1  0.00000000  0.80000000  0.58120000  1
  Ta  Ta1  1  0.00000000  0.80000000  0.78120000  1
  Ta  Ta1  1  0.00000000  0.80000000  0.98120000  1
  Ta  Ta1  1  0.20000000  0.00000000  0.18120000  1
  Ta  Ta1  1  0.20000000  0.00000000  0.38120000  1
  Ta  Ta1  1  0.20000000  0.00000000  0.58120000  1
  Ta  Ta1  1  0.20000000  0.00000000  0.78120000  1
  Ta  Ta1  1  0.20000000  0.00000000  0.98120000  1
  Ta  Ta1  1  0.20000000  0.20000000  0.18120000  1
  Ta  Ta1  1  0.20000000  0.20000000  0.38120000  1
  Ta  Ta1  1  0.20000000  0.20000000  0.58120000  1
  Ta  Ta1  1  0.20000000  0.20000000  0.78120000  1
  Ta  Ta1  1  0.20000000  0.20000000  0.98120000  1
  Ta  Ta1  1  0.20000000  0.40000000  0.18120000  1
  Ta  Ta1  1  0.20000000  0.40000000  0.38120000  1
  Ta  Ta1  1  0.20000000  0.40000000  0.58120000  1
  Ta  Ta1  1  0.20000000  0.40000000  0.78120000  1
  Ta  Ta1  1  0.20000000  0.40000000  0.98120000  1
  Ta  Ta1  1  0.20000000  0.60000000  0.18120000  1
  Ta  Ta1  1  0.20000000  0.60000000  0.38120000  1
  Ta  Ta1  1  0.20000000  0.60000000  0.58120000  1
  Ta  Ta1  1  0.20000000  0.60000000  0.78120000  1
  Ta  Ta1  1  0.20000000  0.60000000  0.98120000  1
  Ta  Ta1  1  0.20000000  0.80000000  0.18120000  1
  Ta  Ta1  1  0.20000000  0.80000000  0.38120000  1
  Ta  Ta1  1  0.20000000  0.80000000  0.58120000  1
  Ta  Ta1  1  0.20000000  0.80000000  0.78120000  1
  Ta  Ta1  1  0.20000000  0.80000000  0.98120000  1
  Ta  Ta1  1  0.40000000  0.00000000  0.18120000  1
  Ta  Ta1  1  0.40000000  0.00000000  0.38120000  1
  Ta  Ta1  1  0.40000000  0.00000000  0.58120000  1
  Ta  Ta1  1  0.40000000  0.00000000  0.78120000  1
  Ta  Ta1  1  0.40000000  0.00000000  0.98120000  1
  Ta  Ta1  1  0.40000000  0.20000000  0.18120000  1
  Ta  Ta1  1  0.40000000  0.20000000  0.38120000  1
  Ta  Ta1  1  0.40000000  0.20000000  0.58120000  1
  Ta  Ta1  1  0.40000000  0.20000000  0.78120000  1
  Ta  Ta1  1  0.40000000  0.20000000  0.98120000  1
  Ta  Ta1  1  0.40000000  0.40000000  0.18120000  1
  Ta  Ta1  1  0.40000000  0.40000000  0.38120000  1
  Ta  Ta1  1  0.40000000  0.40000000  0.58120000  1
  Ta  Ta1  1  0.40000000  0.40000000  0.78120000  1
  Ta  Ta1  1  0.40000000  0.40000000  0.98120000  1
  Ta  Ta1  1  0.40000000  0.60000000  0.18120000  1
  Ta  Ta1  1  0.40000000  0.60000000  0.38120000  1
  Ta  Ta1  1  0.40000000  0.60000000  0.58120000  1
  Ta  Ta1  1  0.40000000  0.60000000  0.78120000  1
  Ta  Ta1  1  0.40000000  0.60000000  0.98120000  1
  Ta  Ta1  1  0.40000000  0.80000000  0.18120000  1
  Ta  Ta1  1  0.40000000  0.80000000  0.38120000  1
  Ta  Ta1  1  0.40000000  0.80000000  0.58120000  1
  Ta  Ta1  1  0.40000000  0.80000000  0.78120000  1
  Ta  Ta1  1  0.40000000  0.80000000  0.98120000  1
  Ta  Ta1  1  0.60000000  0.00000000  0.18120000  1
  Ta  Ta1  1  0.60000000  0.00000000  0.38120000  1
  Ta  Ta1  1  0.60000000  0.00000000  0.58120000  1
  Ta  Ta1  1  0.60000000  0.00000000  0.78120000  1
  Ta  Ta1  1  0.60000000  0.00000000  0.98120000  1
  Ta  Ta1  1  0.60000000  0.20000000  0.18120000  1
  Ta  Ta1  1  0.60000000  0.20000000  0.38120000  1
  Ta  Ta1  1  0.60000000  0.20000000  0.58120000  1
  Ta  Ta1  1  0.60000000  0.20000000  0.78120000  1
  Ta  Ta1  1  0.60000000  0.20000000  0.98120000  1
  Ta  Ta1  1  0.60000000  0.40000000  0.18120000  1
  Ta  Ta1  1  0.60000000  0.40000000  0.38120000  1
  Ta  Ta1  1  0.60000000  0.40000000  0.58120000  1
  Ta  Ta1  1  0.60000000  0.40000000  0.78120000  1
  Ta  Ta1  1  0.60000000  0.40000000  0.98120000  1
  Ta  Ta1  1  0.60000000  0.60000000  0.18120000  1
  Ta  Ta1  1  0.60000000  0.60000000  0.38120000  1
  Ta  Ta1  1  0.60000000  0.60000000  0.58120000  1
  Ta  Ta1  1  0.60000000  0.60000000  0.78120000  1
  Ta  Ta1  1  0.60000000  0.60000000  0.98120000  1
  Ta  Ta1  1  0.60000000  0.80000000  0.18120000  1
  Ta  Ta1  1  0.60000000  0.80000000  0.38120000  1
  Ta  Ta1  1  0.60000000  0.80000000  0.58120000  1
  Ta  Ta1  1  0.60000000  0.80000000  0.78120000  1
  Ta  Ta1  1  0.60000000  0.80000000  0.98120000  1
  Ta  Ta1  1  0.80000000  0.00000000  0.18120000  1
  Ta  Ta1  1  0.80000000  0.00000000  0.38120000  1
  Ta  Ta1  1  0.80000000  0.00000000  0.58120000  1
  Ta  Ta1  1  0.80000000  0.00000000  0.78120000  1
  Ta  Ta1  1  0.80000000  0.00000000  0.98120000  1
  Ta  Ta1  1  0.80000000  0.20000000  0.18120000  1
  Ta  Ta1  1  0.80000000  0.20000000  0.38120000  1
  Ta  Ta1  1  0.80000000  0.20000000  0.58120000  1
  Ta  Ta1  1  0.80000000  0.20000000  0.78120000  1
  Ta  Ta1  1  0.80000000  0.20000000  0.98120000  1
  Ta  Ta1  1  0.80000000  0.40000000  0.18120000  1
  Ta  Ta1  1  0.80000000  0.40000000  0.38120000  1
  Ta  Ta1  1  0.80000000  0.40000000  0.58120000  1
  Ta  Ta1  1  0.80000000  0.40000000  0.78120000  1
  Ta  Ta1  1  0.80000000  0.40000000  0.98120000  1
  Ta  Ta1  1  0.80000000  0.60000000  0.18120000  1
  Ta  Ta1  1  0.80000000  0.60000000  0.38120000  1
  Ta  Ta1  1  0.80000000  0.60000000  0.58120000  1
  Ta  Ta1  1  0.80000000  0.60000000  0.78120000  1
  Ta  Ta1  1  0.80000000  0.60000000  0.98120000  1
  Ta  Ta1  1  0.80000000  0.80000000  0.18120000  1
  Ta  Ta1  1  0.80000000  0.80000000  0.38120000  1
  Ta  Ta1  1  0.80000000  0.80000000  0.58120000  1
  Ta  Ta1  1  0.80000000  0.80000000  0.78120000  1
  Ta  Ta1  1  0.80000000  0.80000000  0.98120000  1
  Ta  Ta2  1  0.06666667  0.13333333  0.16884000  1
  Ta  Ta2  1  0.06666667  0.13333333  0.36884000  1
  Ta  Ta2  1  0.06666667  0.13333333  0.56884000  1
  Ta  Ta2  1  0.06666667  0.13333333  0.76884000  1
  Ta  Ta2  1  0.06666667  0.13333333  0.96884000  1
  Ta  Ta2  1  0.06666667  0.33333333  0.16884000  1
  Ta  Ta2  1  0.06666667  0.33333333  0.36884000  1
  Ta  Ta2  1  0.06666667  0.33333333  0.56884000  1
  Ta  Ta2  1  0.06666667  0.33333333  0.76884000  1
  Ta  Ta2  1  0.06666667  0.33333333  0.96884000  1
  Ta  Ta2  1  0.06666667  0.53333333  0.16884000  1
  Ta  Ta2  1  0.06666667  0.53333333  0.36884000  1
  Ta  Ta2  1  0.06666667  0.53333333  0.56884000  1
  Ta  Ta2  1  0.06666667  0.53333333  0.76884000  1
  Ta  Ta2  1  0.06666667  0.53333333  0.96884000  1
  Ta  Ta2  1  0.06666667  0.73333333  0.16884000  1
  Ta  Ta2  1  0.06666667  0.73333333  0.36884000  1
  Ta  Ta2  1  0.06666667  0.73333333  0.56884000  1
  Ta  Ta2  1  0.06666667  0.73333333  0.76884000  1
  Ta  Ta2  1  0.06666667  0.73333333  0.96884000  1
  Ta  Ta2  1  0.06666667  0.93333333  0.16884000  1
  Ta  Ta2  1  0.06666667  0.93333333  0.36884000  1
  Ta  Ta2  1  0.06666667  0.93333333  0.56884000  1
  Ta  Ta2  1  0.06666667  0.93333333  0.76884000  1
  Ta  Ta2  1  0.06666667  0.93333333  0.96884000  1
  Ta  Ta2  1  0.26666667  0.13333333  0.16884000  1
  Ta  Ta2  1  0.26666667  0.13333333  0.36884000  1
  Ta  Ta2  1  0.26666667  0.13333333  0.56884000  1
  Ta  Ta2  1  0.26666667  0.13333333  0.76884000  1
  Ta  Ta2  1  0.26666667  0.13333333  0.96884000  1
  Ta  Ta2  1  0.26666667  0.33333333  0.16884000  1
  Ta  Ta2  1  0.26666667  0.33333333  0.36884000  1
  Ta  Ta2  1  0.26666667  0.33333333  0.56884000  1
  Ta  Ta2  1  0.26666667  0.33333333  0.76884000  1
  Ta  Ta2  1  0.26666667  0.33333333  0.96884000  1
  Ta  Ta2  1  0.26666667  0.53333333  0.16884000  1
  Ta  Ta2  1  0.26666667  0.53333333  0.36884000  1
  Ta  Ta2  1  0.26666667  0.53333333  0.56884000  1
  Ta  Ta2  1  0.26666667  0.53333333  0.76884000  1
  Ta  Ta2  1  0.26666667  0.53333333  0.96884000  1
  Ta  Ta2  1  0.26666667  0.73333333  0.16884000  1
  Ta  Ta2  1  0.26666667  0.73333333  0.36884000  1
  Ta  Ta2  1  0.26666667  0.73333333  0.56884000  1
  Ta  Ta2  1  0.26666667  0.73333333  0.76884000  1
  Ta  Ta2  1  0.26666667  0.73333333  0.96884000  1
  Ta  Ta2  1  0.26666667  0.93333333  0.16884000  1
  Ta  Ta2  1  0.26666667  0.93333333  0.36884000  1
  Ta  Ta2  1  0.26666667  0.93333333  0.56884000  1
  Ta  Ta2  1  0.26666667  0.93333333  0.76884000  1
  Ta  Ta2  1  0.26666667  0.93333333  0.96884000  1
  Ta  Ta2  1  0.46666667  0.13333333  0.16884000  1
  Ta  Ta2  1  0.46666667  0.13333333  0.36884000  1
  Ta  Ta2  1  0.46666667  0.13333333  0.56884000  1
  Ta  Ta2  1  0.46666667  0.13333333  0.76884000  1
  Ta  Ta2  1  0.46666667  0.13333333  0.96884000  1
  Ta  Ta2  1  0.46666667  0.33333333  0.16884000  1
  Ta  Ta2  1  0.46666667  0.33333333  0.36884000  1
  Ta  Ta2  1  0.46666667  0.33333333  0.56884000  1
  Ta  Ta2  1  0.46666667  0.33333333  0.76884000  1
  Ta  Ta2  1  0.46666667  0.33333333  0.96884000  1
  Ta  Ta2  1  0.46666667  0.53333333  0.16884000  1
  Ta  Ta2  1  0.46666667  0.53333333  0.36884000  1
  Ta  Ta2  1  0.46666667  0.53333333  0.56884000  1
  Ta  Ta2  1  0.46666667  0.53333333  0.76884000  1
  Ta  Ta2  1  0.46666667  0.53333333  0.96884000  1
  Ta  Ta2  1  0.46666667  0.73333333  0.16884000  1
  Ta  Ta2  1  0.46666667  0.73333333  0.36884000  1
  Ta  Ta2  1  0.46666667  0.73333333  0.56884000  1
  Ta  Ta2  1  0.46666667  0.73333333  0.76884000  1
  Ta  Ta2  1  0.46666667  0.73333333  0.96884000  1
  Ta  Ta2  1  0.46666667  0.93333333  0.16884000  1
  Ta  Ta2  1  0.46666667  0.93333333  0.36884000  1
  Ta  Ta2  1  0.46666667  0.93333333  0.56884000  1
  Ta  Ta2  1  0.46666667  0.93333333  0.76884000  1
  Ta  Ta2  1  0.46666667  0.93333333  0.96884000  1
  Ta  Ta2  1  0.66666667  0.13333333  0.16884000  1
  Ta  Ta2  1  0.66666667  0.13333333  0.36884000  1
  Ta  Ta2  1  0.66666667  0.13333333  0.56884000  1
  Ta  Ta2  1  0.66666667  0.13333333  0.76884000  1
  Ta  Ta2  1  0.66666667  0.13333333  0.96884000  1
  Ta  Ta2  1  0.66666667  0.33333333  0.16884000  1
  Ta  Ta2  1  0.66666667  0.33333333  0.36884000  1
  Ta  Ta2  1  0.66666667  0.33333333  0.56884000  1
  Ta  Ta2  1  0.66666667  0.33333333  0.76884000  1
  Ta  Ta2  1  0.66666667  0.33333333  0.96884000  1
  Ta  Ta2  1  0.66666667  0.53333333  0.16884000  1
  Ta  Ta2  1  0.66666667  0.53333333  0.36884000  1
  Ta  Ta2  1  0.66666667  0.53333333  0.56884000  1
  Ta  Ta2  1  0.66666667  0.53333333  0.76884000  1
  Ta  Ta2  1  0.66666667  0.53333333  0.96884000  1
  Ta  Ta2  1  0.66666667  0.73333333  0.16884000  1
  Ta  Ta2  1  0.66666667  0.73333333  0.36884000  1
  Ta  Ta2  1  0.66666667  0.73333333  0.56884000  1
  Ta  Ta2  1  0.66666667  0.73333333  0.76884000  1
  Ta  Ta2  1  0.66666667  0.73333333  0.96884000  1
  Ta  Ta2  1  0.66666667  0.93333333  0.16884000  1
  Ta  Ta2  1  0.66666667  0.93333333  0.36884000  1
  Ta  Ta2  1  0.66666667  0.93333333  0.56884000  1
  Ta  Ta2  1  0.66666667  0.93333333  0.76884000  1
  Ta  Ta2  1  0.66666667  0.93333333  0.96884000  1
  Ta  Ta2  1  0.86666667  0.13333333  0.16884000  1
  Ta  Ta2  1  0.86666667  0.13333333  0.36884000  1
  Ta  Ta2  1  0.86666667  0.13333333  0.56884000  1
  Ta  Ta2  1  0.86666667  0.13333333  0.76884000  1
  Ta  Ta2  1  0.86666667  0.13333333  0.96884000  1
  Ta  Ta2  1  0.86666667  0.33333333  0.16884000  1
  Ta  Ta2  1  0.86666667  0.33333333  0.36884000  1
  Ta  Ta2  1  0.86666667  0.33333333  0.56884000  1
  Ta  Ta2  1  0.86666667  0.33333333  0.76884000  1
  Ta  Ta2  1  0.86666667  0.33333333  0.96884000  1
  Ta  Ta2  1  0.86666667  0.53333333  0.16884000  1
  Ta  Ta2  1  0.86666667  0.53333333  0.36884000  1
  Ta  Ta2  1  0.86666667  0.53333333  0.56884000  1
  Ta  Ta2  1  0.86666667  0.53333333  0.76884000  1
  Ta  Ta2  1  0.86666667  0.53333333  0.96884000  1
  Ta  Ta2  1  0.86666667  0.73333333  0.16884000  1
  Ta  Ta2  1  0.86666667  0.73333333  0.36884000  1
  Ta  Ta2  1  0.86666667  0.73333333  0.56884000  1
  Ta  Ta2  1  0.86666667  0.73333333  0.76884000  1
  Ta  Ta2  1  0.86666667  0.73333333  0.96884000  1
  Ta  Ta2  1  0.86666667  0.93333333  0.16884000  1
  Ta  Ta2  1  0.86666667  0.93333333  0.36884000  1
  Ta  Ta2  1  0.86666667  0.93333333  0.56884000  1
  Ta  Ta2  1  0.86666667  0.93333333  0.76884000  1
  Ta  Ta2  1  0.86666667  0.93333333  0.96884000  1
  Ta  Ta2  1  0.13333333  0.06666667  0.06884000  1
  Ta  Ta2  1  0.13333333  0.06666667  0.26884000  1
  Ta  Ta2  1  0.13333333  0.06666667  0.46884000  1
  Ta  Ta2  1  0.13333333  0.06666667  0.66884000  1
  Ta  Ta2  1  0.13333333  0.06666667  0.86884000  1
  Ta  Ta2  1  0.13333333  0.26666667  0.06884000  1
  Ta  Ta2  1  0.13333333  0.26666667  0.26884000  1
  Ta  Ta2  1  0.13333333  0.26666667  0.46884000  1
  Ta  Ta2  1  0.13333333  0.26666667  0.66884000  1
  Ta  Ta2  1  0.13333333  0.26666667  0.86884000  1
  Ta  Ta2  1  0.13333333  0.46666667  0.06884000  1
  Ta  Ta2  1  0.13333333  0.46666667  0.26884000  1
  Ta  Ta2  1  0.13333333  0.46666667  0.46884000  1
  Ta  Ta2  1  0.13333333  0.46666667  0.66884000  1
  Ta  Ta2  1  0.13333333  0.46666667  0.86884000  1
  Ta  Ta2  1  0.13333333  0.66666667  0.06884000  1
  Ta  Ta2  1  0.13333333  0.66666667  0.26884000  1
  Ta  Ta2  1  0.13333333  0.66666667  0.46884000  1
  Ta  Ta2  1  0.13333333  0.66666667  0.66884000  1
  Ta  Ta2  1  0.13333333  0.66666667  0.86884000  1
  Ta  Ta2  1  0.13333333  0.86666667  0.06884000  1
  Ta  Ta2  1  0.13333333  0.86666667  0.26884000  1
  Ta  Ta2  1  0.13333333  0.86666667  0.46884000  1
  Ta  Ta2  1  0.13333333  0.86666667  0.66884000  1
  Ta  Ta2  1  0.13333333  0.86666667  0.86884000  1
  Ta  Ta2  1  0.33333333  0.06666667  0.06884000  1
  Ta  Ta2  1  0.33333333  0.06666667  0.26884000  1
  Ta  Ta2  1  0.33333333  0.06666667  0.46884000  1
  Ta  Ta2  1  0.33333333  0.06666667  0.66884000  1
  Ta  Ta2  1  0.33333333  0.06666667  0.86884000  1
  Ta  Ta2  1  0.33333333  0.26666667  0.06884000  1
  Ta  Ta2  1  0.33333333  0.26666667  0.26884000  1
  Ta  Ta2  1  0.33333333  0.26666667  0.46884000  1
  Ta  Ta2  1  0.33333333  0.26666667  0.66884000  1
  Ta  Ta2  1  0.33333333  0.26666667  0.86884000  1
  Ta  Ta2  1  0.33333333  0.46666667  0.06884000  1
  Ta  Ta2  1  0.33333333  0.46666667  0.26884000  1
  Ta  Ta2  1  0.33333333  0.46666667  0.46884000  1
  Ta  Ta2  1  0.33333333  0.46666667  0.66884000  1
  Ta  Ta2  1  0.33333333  0.46666667  0.86884000  1
  Ta  Ta2  1  0.33333333  0.66666667  0.06884000  1
  Ta  Ta2  1  0.33333333  0.66666667  0.26884000  1
  Ta  Ta2  1  0.33333333  0.66666667  0.46884000  1
  Ta  Ta2  1  0.33333333  0.66666667  0.66884000  1
  Ta  Ta2  1  0.33333333  0.66666667  0.86884000  1
  Ta  Ta2  1  0.33333333  0.86666667  0.06884000  1
  Ta  Ta2  1  0.33333333  0.86666667  0.26884000  1
  Ta  Ta2  1  0.33333333  0.86666667  0.46884000  1
  Ta  Ta2  1  0.33333333  0.86666667  0.66884000  1
  Ta  Ta2  1  0.33333333  0.86666667  0.86884000  1
  Ta  Ta2  1  0.53333333  0.06666667  0.06884000  1
  Ta  Ta2  1  0.53333333  0.06666667  0.26884000  1
  Ta  Ta2  1  0.53333333  0.06666667  0.46884000  1
  Ta  Ta2  1  0.53333333  0.06666667  0.66884000  1
  Ta  Ta2  1  0.53333333  0.06666667  0.86884000  1
  Ta  Ta2  1  0.53333333  0.26666667  0.06884000  1
  Ta  Ta2  1  0.53333333  0.26666667  0.26884000  1
  Ta  Ta2  1  0.53333333  0.26666667  0.46884000  1
  Ta  Ta2  1  0.53333333  0.26666667  0.66884000  1
  Ta  Ta2  1  0.53333333  0.26666667  0.86884000  1
  Ta  Ta2  1  0.53333333  0.46666667  0.06884000  1
  Ta  Ta2  1  0.53333333  0.46666667  0.26884000  1
  Ta  Ta2  1  0.53333333  0.46666667  0.46884000  1
  Ta  Ta2  1  0.53333333  0.46666667  0.66884000  1
  Ta  Ta2  1  0.53333333  0.46666667  0.86884000  1
  Ta  Ta2  1  0.53333333  0.66666667  0.06884000  1
  Ta  Ta2  1  0.53333333  0.66666667  0.26884000  1
  Ta  Ta2  1  0.53333333  0.66666667  0.46884000  1
  Ta  Ta2  1  0.53333333  0.66666667  0.66884000  1
  Ta  Ta2  1  0.53333333  0.66666667  0.86884000  1
  Ta  Ta2  1  0.53333333  0.86666667  0.06884000  1
  Ta  Ta2  1  0.53333333  0.86666667  0.26884000  1
  Ta  Ta2  1  0.53333333  0.86666667  0.46884000  1
  Ta  Ta2  1  0.53333333  0.86666667  0.66884000  1
  Ta  Ta2  1  0.53333333  0.86666667  0.86884000  1
  Ta  Ta2  1  0.73333333  0.06666667  0.06884000  1
  Ta  Ta2  1  0.73333333  0.06666667  0.26884000  1
  Ta  Ta2  1  0.73333333  0.06666667  0.46884000  1
  Ta  Ta2  1  0.73333333  0.06666667  0.66884000  1
  Ta  Ta2  1  0.73333333  0.06666667  0.86884000  1
  Ta  Ta2  1  0.73333333  0.26666667  0.06884000  1
  Ta  Ta2  1  0.73333333  0.26666667  0.26884000  1
  Ta  Ta2  1  0.73333333  0.26666667  0.46884000  1
  Ta  Ta2  1  0.73333333  0.26666667  0.66884000  1
  Ta  Ta2  1  0.73333333  0.26666667  0.86884000  1
  Ta  Ta2  1  0.73333333  0.46666667  0.06884000  1
  Ta  Ta2  1  0.73333333  0.46666667  0.26884000  1
  Ta  Ta2  1  0.73333333  0.46666667  0.46884000  1
  Ta  Ta2  1  0.73333333  0.46666667  0.66884000  1
  Ta  Ta2  1  0.73333333  0.46666667  0.86884000  1
  Ta  Ta2  1  0.73333333  0.66666667  0.06884000  1
  Ta  Ta2  1  0.73333333  0.66666667  0.26884000  1
  Ta  Ta2  1  0.73333333  0.66666667  0.46884000  1
  Ta  Ta2  1  0.73333333  0.66666667  0.66884000  1
  Ta  Ta2  1  0.73333333  0.66666667  0.86884000  1
  Ta  Ta2  1  0.73333333  0.86666667  0.06884000  1
  Ta  Ta2  1  0.73333333  0.86666667  0.26884000  1
  Ta  Ta2  1  0.73333333  0.86666667  0.46884000  1
  Ta  Ta2  1  0.73333333  0.86666667  0.66884000  1
  Ta  Ta2  1  0.73333333  0.86666667  0.86884000  1
  Ta  Ta2  1  0.93333333  0.06666667  0.06884000  1
  Ta  Ta2  1  0.93333333  0.06666667  0.26884000  1
  Ta  Ta2  1  0.93333333  0.06666667  0.46884000  1
  Ta  Ta2  1  0.93333333  0.06666667  0.66884000  1
  Ta  Ta2  1  0.93333333  0.06666667  0.86884000  1
  Ta  Ta2  1  0.93333333  0.26666667  0.06884000  1
  Ta  Ta2  1  0.93333333  0.26666667  0.26884000  1
  Ta  Ta2  1  0.93333333  0.26666667  0.46884000  1
  Ta  Ta2  1  0.93333333  0.26666667  0.66884000  1
  Ta  Ta2  1  0.93333333  0.26666667  0.86884000  1
  Ta  Ta2  1  0.93333333  0.46666667  0.06884000  1
  Ta  Ta2  1  0.93333333  0.46666667  0.26884000  1
  Ta  Ta2  1  0.93333333  0.46666667  0.46884000  1
  Ta  Ta2  1  0.93333333  0.46666667  0.66884000  1
  Ta  Ta2  1  0.93333333  0.46666667  0.86884000  1
  Ta  Ta2  1  0.93333333  0.66666667  0.06884000  1
  Ta  Ta2  1  0.93333333  0.66666667  0.26884000  1
  Ta  Ta2  1  0.93333333  0.66666667  0.46884000  1
  Ta  Ta2  1  0.93333333  0.66666667  0.66884000  1
  Ta  Ta2  1  0.93333333  0.66666667  0.86884000  1
  Ta  Ta2  1  0.93333333  0.86666667  0.06884000  1
  Ta  Ta2  1  0.93333333  0.86666667  0.26884000  1
  Ta  Ta2  1  0.93333333  0.86666667  0.46884000  1
  Ta  Ta2  1  0.93333333  0.86666667  0.66884000  1
  Ta  Ta2  1  0.93333333  0.86666667  0.86884000  1
  Ta  Ta2  1  0.06666667  0.13333333  0.13116000  1
  Ta  Ta2  1  0.06666667  0.13333333  0.33116000  1
  Ta  Ta2  1  0.06666667  0.13333333  0.53116000  1
  Ta  Ta2  1  0.06666667  0.13333333  0.73116000  1
  Ta  Ta2  1  0.06666667  0.13333333  0.93116000  1
  Ta  Ta2  1  0.06666667  0.33333333  0.13116000  1
  Ta  Ta2  1  0.06666667  0.33333333  0.33116000  1
  Ta  Ta2  1  0.06666667  0.33333333  0.53116000  1
  Ta  Ta2  1  0.06666667  0.33333333  0.73116000  1
  Ta  Ta2  1  0.06666667  0.33333333  0.93116000  1
  Ta  Ta2  1  0.06666667  0.53333333  0.13116000  1
  Ta  Ta2  1  0.06666667  0.53333333  0.33116000  1
  Ta  Ta2  1  0.06666667  0.53333333  0.53116000  1
  Ta  Ta2  1  0.06666667  0.53333333  0.73116000  1
  Ta  Ta2  1  0.06666667  0.53333333  0.93116000  1
  Ta  Ta2  1  0.06666667  0.73333333  0.13116000  1
  Ta  Ta2  1  0.06666667  0.73333333  0.33116000  1
  Ta  Ta2  1  0.06666667  0.73333333  0.53116000  1
  Ta  Ta2  1  0.06666667  0.73333333  0.73116000  1
  Ta  Ta2  1  0.06666667  0.73333333  0.93116000  1
  Ta  Ta2  1  0.06666667  0.93333333  0.13116000  1
  Ta  Ta2  1  0.06666667  0.93333333  0.33116000  1
  Ta  Ta2  1  0.06666667  0.93333333  0.53116000  1
  Ta  Ta2  1  0.06666667  0.93333333  0.73116000  1
  Ta  Ta2  1  0.06666667  0.93333333  0.93116000  1
  Ta  Ta2  1  0.26666667  0.13333333  0.13116000  1
  Ta  Ta2  1  0.26666667  0.13333333  0.33116000  1
  Ta  Ta2  1  0.26666667  0.13333333  0.53116000  1
  Ta  Ta2  1  0.26666667  0.13333333  0.73116000  1
  Ta  Ta2  1  0.26666667  0.13333333  0.93116000  1
  Ta  Ta2  1  0.26666667  0.33333333  0.13116000  1
  Ta  Ta2  1  0.26666667  0.33333333  0.33116000  1
  Ta  Ta2  1  0.26666667  0.33333333  0.53116000  1
  Ta  Ta2  1  0.26666667  0.33333333  0.73116000  1
  Ta  Ta2  1  0.26666667  0.33333333  0.93116000  1
  Ta  Ta2  1  0.26666667  0.53333333  0.13116000  1
  Ta  Ta2  1  0.26666667  0.53333333  0.33116000  1
  Ta  Ta2  1  0.26666667  0.53333333  0.53116000  1
  Ta  Ta2  1  0.26666667  0.53333333  0.73116000  1
  Ta  Ta2  1  0.26666667  0.53333333  0.93116000  1
  Ta  Ta2  1  0.26666667  0.73333333  0.13116000  1
  Ta  Ta2  1  0.26666667  0.73333333  0.33116000  1
  Ta  Ta2  1  0.26666667  0.73333333  0.53116000  1
  Ta  Ta2  1  0.26666667  0.73333333  0.73116000  1
  Ta  Ta2  1  0.26666667  0.73333333  0.93116000  1
  Ta  Ta2  1  0.26666667  0.93333333  0.13116000  1
  Ta  Ta2  1  0.26666667  0.93333333  0.33116000  1
  Ta  Ta2  1  0.26666667  0.93333333  0.53116000  1
  Ta  Ta2  1  0.26666667  0.93333333  0.73116000  1
  Ta  Ta2  1  0.26666667  0.93333333  0.93116000  1
  Ta  Ta2  1  0.46666667  0.13333333  0.13116000  1
  Ta  Ta2  1  0.46666667  0.13333333  0.33116000  1
  Ta  Ta2  1  0.46666667  0.13333333  0.53116000  1
  Ta  Ta2  1  0.46666667  0.13333333  0.73116000  1
  Ta  Ta2  1  0.46666667  0.13333333  0.93116000  1
  Ta  Ta2  1  0.46666667  0.33333333  0.13116000  1
  Ta  Ta2  1  0.46666667  0.33333333  0.33116000  1
  Ta  Ta2  1  0.46666667  0.33333333  0.53116000  1
  Ta  Ta2  1  0.46666667  0.33333333  0.73116000  1
  Ta  Ta2  1  0.46666667  0.33333333  0.93116000  1
  Ta  Ta2  1  0.46666667  0.53333333  0.13116000  1
  Ta  Ta2  1  0.46666667  0.53333333  0.33116000  1
  Ta  Ta2  1  0.46666667  0.53333333  0.53116000  1
  Ta  Ta2  1  0.46666667  0.53333333  0.73116000  1
  Ta  Ta2  1  0.46666667  0.53333333  0.93116000  1
  Ta  Ta2  1  0.46666667  0.73333333  0.13116000  1
  Ta  Ta2  1  0.46666667  0.73333333  0.33116000  1
  Ta  Ta2  1  0.46666667  0.73333333  0.53116000  1
  Ta  Ta2  1  0.46666667  0.73333333  0.73116000  1
  Ta  Ta2  1  0.46666667  0.73333333  0.93116000  1
  Ta  Ta2  1  0.46666667  0.93333333  0.13116000  1
  Ta  Ta2  1  0.46666667  0.93333333  0.33116000  1
  Ta  Ta2  1  0.46666667  0.93333333  0.53116000  1
  Ta  Ta2  1  0.46666667  0.93333333  0.73116000  1
  Ta  Ta2  1  0.46666667  0.93333333  0.93116000  1
  Ta  Ta2  1  0.66666667  0.13333333  0.13116000  1
  Ta  Ta2  1  0.66666667  0.13333333  0.33116000  1
  Ta  Ta2  1  0.66666667  0.13333333  0.53116000  1
  Ta  Ta2  1  0.66666667  0.13333333  0.73116000  1
  Ta  Ta2  1  0.66666667  0.13333333  0.93116000  1
  Ta  Ta2  1  0.66666667  0.33333333  0.13116000  1
  Ta  Ta2  1  0.66666667  0.33333333  0.33116000  1
  Ta  Ta2  1  0.66666667  0.33333333  0.53116000  1
  Ta  Ta2  1  0.66666667  0.33333333  0.73116000  1
  Ta  Ta2  1  0.66666667  0.33333333  0.93116000  1
  Ta  Ta2  1  0.66666667  0.53333333  0.13116000  1
  Ta  Ta2  1  0.66666667  0.53333333  0.33116000  1
  Ta  Ta2  1  0.66666667  0.53333333  0.53116000  1
  Ta  Ta2  1  0.66666667  0.53333333  0.73116000  1
  Ta  Ta2  1  0.66666667  0.53333333  0.93116000  1
  Ta  Ta2  1  0.66666667  0.73333333  0.13116000  1
  Ta  Ta2  1  0.66666667  0.73333333  0.33116000  1
  Ta  Ta2  1  0.66666667  0.73333333  0.53116000  1
  Ta  Ta2  1  0.66666667  0.73333333  0.73116000  1
  Ta  Ta2  1  0.66666667  0.73333333  0.93116000  1
  Ta  Ta2  1  0.66666667  0.93333333  0.13116000  1
  Ta  Ta2  1  0.66666667  0.93333333  0.33116000  1
  Ta  Ta2  1  0.66666667  0.93333333  0.53116000  1
  Ta  Ta2  1  0.66666667  0.93333333  0.73116000  1
  Ta  Ta2  1  0.66666667  0.93333333  0.93116000  1
  Ta  Ta2  1  0.86666667  0.13333333  0.13116000  1
  Ta  Ta2  1  0.86666667  0.13333333  0.33116000  1
  Ta  Ta2  1  0.86666667  0.13333333  0.53116000  1
  Ta  Ta2  1  0.86666667  0.13333333  0.73116000  1
  Ta  Ta2  1  0.86666667  0.13333333  0.93116000  1
  Ta  Ta2  1  0.86666667  0.33333333  0.13116000  1
  Ta  Ta2  1  0.86666667  0.33333333  0.33116000  1
  Ta  Ta2  1  0.86666667  0.33333333  0.53116000  1
  Ta  Ta2  1  0.86666667  0.33333333  0.73116000  1
  Ta  Ta2  1  0.86666667  0.33333333  0.93116000  1
  Ta  Ta2  1  0.86666667  0.53333333  0.13116000  1
  Ta  Ta2  1  0.86666667  0.53333333  0.33116000  1
  Ta  Ta2  1  0.86666667  0.53333333  0.53116000  1
  Ta  Ta2  1  0.86666667  0.53333333  0.73116000  1
  Ta  Ta2  1  0.86666667  0.53333333  0.93116000  1
  Ta  Ta2  1  0.86666667  0.73333333  0.13116000  1
  Ta  Ta2  1  0.86666667  0.73333333  0.33116000  1
  Ta  Ta2  1  0.86666667  0.73333333  0.53116000  1
  Ta  Ta2  1  0.86666667  0.73333333  0.73116000  1
  Ta  Ta2  1  0.86666667  0.73333333  0.93116000  1
  Ta  Ta2  1  0.86666667  0.93333333  0.13116000  1
  Ta  Ta2  1  0.86666667  0.93333333  0.33116000  1
  Ta  Ta2  1  0.86666667  0.93333333  0.53116000  1
  Ta  Ta2  1  0.86666667  0.93333333  0.73116000  1
  Ta  Ta2  1  0.86666667  0.93333333  0.93116000  1
  Ta  Ta2  1  0.13333333  0.06666667  0.03116000  1
  Ta  Ta2  1  0.13333333  0.06666667  0.23116000  1
  Ta  Ta2  1  0.13333333  0.06666667  0.43116000  1
  Ta  Ta2  1  0.13333333  0.06666667  0.63116000  1
  Ta  Ta2  1  0.13333333  0.06666667  0.83116000  1
  Ta  Ta2  1  0.13333333  0.26666667  0.03116000  1
  Ta  Ta2  1  0.13333333  0.26666667  0.23116000  1
  Ta  Ta2  1  0.13333333  0.26666667  0.43116000  1
  Ta  Ta2  1  0.13333333  0.26666667  0.63116000  1
  Ta  Ta2  1  0.13333333  0.26666667  0.83116000  1
  Ta  Ta2  1  0.13333333  0.46666667  0.03116000  1
  Ta  Ta2  1  0.13333333  0.46666667  0.23116000  1
  Ta  Ta2  1  0.13333333  0.46666667  0.43116000  1
  Ta  Ta2  1  0.13333333  0.46666667  0.63116000  1
  Ta  Ta2  1  0.13333333  0.46666667  0.83116000  1
  Ta  Ta2  1  0.13333333  0.66666667  0.03116000  1
  Ta  Ta2  1  0.13333333  0.66666667  0.23116000  1
  Ta  Ta2  1  0.13333333  0.66666667  0.43116000  1
  Ta  Ta2  1  0.13333333  0.66666667  0.63116000  1
  Ta  Ta2  1  0.13333333  0.66666667  0.83116000  1
  Ta  Ta2  1  0.13333333  0.86666667  0.03116000  1
  Ta  Ta2  1  0.13333333  0.86666667  0.23116000  1
  Ta  Ta2  1  0.13333333  0.86666667  0.43116000  1
  Ta  Ta2  1  0.13333333  0.86666667  0.63116000  1
  Ta  Ta2  1  0.13333333  0.86666667  0.83116000  1
  Ta  Ta2  1  0.33333333  0.06666667  0.03116000  1
  Ta  Ta2  1  0.33333333  0.06666667  0.23116000  1
  Ta  Ta2  1  0.33333333  0.06666667  0.43116000  1
  Ta  Ta2  1  0.33333333  0.06666667  0.63116000  1
  Ta  Ta2  1  0.33333333  0.06666667  0.83116000  1
  Ta  Ta2  1  0.33333333  0.26666667  0.03116000  1
  Ta  Ta2  1  0.33333333  0.26666667  0.23116000  1
  Ta  Ta2  1  0.33333333  0.26666667  0.43116000  1
  Ta  Ta2  1  0.33333333  0.26666667  0.63116000  1
  Ta  Ta2  1  0.33333333  0.26666667  0.83116000  1
  Ta  Ta2  1  0.33333333  0.46666667  0.03116000  1
  Ta  Ta2  1  0.33333333  0.46666667  0.23116000  1
  Ta  Ta2  1  0.33333333  0.46666667  0.43116000  1
  Ta  Ta2  1  0.33333333  0.46666667  0.63116000  1
  Ta  Ta2  1  0.33333333  0.46666667  0.83116000  1
  Ta  Ta2  1  0.33333333  0.66666667  0.03116000  1
  Ta  Ta2  1  0.33333333  0.66666667  0.23116000  1
  Ta  Ta2  1  0.33333333  0.66666667  0.43116000  1
  Ta  Ta2  1  0.33333333  0.66666667  0.63116000  1
  Ta  Ta2  1  0.33333333  0.66666667  0.83116000  1
  Ta  Ta2  1  0.33333333  0.86666667  0.03116000  1
  Ta  Ta2  1  0.33333333  0.86666667  0.23116000  1
  Ta  Ta2  1  0.33333333  0.86666667  0.43116000  1
  Ta  Ta2  1  0.33333333  0.86666667  0.63116000  1
  Ta  Ta2  1  0.33333333  0.86666667  0.83116000  1
  Ta  Ta2  1  0.53333333  0.06666667  0.03116000  1
  Ta  Ta2  1  0.53333333  0.06666667  0.23116000  1
  Ta  Ta2  1  0.53333333  0.06666667  0.43116000  1
  Ta  Ta2  1  0.53333333  0.06666667  0.63116000  1
  Ta  Ta2  1  0.53333333  0.06666667  0.83116000  1
  Ta  Ta2  1  0.53333333  0.26666667  0.03116000  1
  Ta  Ta2  1  0.53333333  0.26666667  0.23116000  1
  Ta  Ta2  1  0.53333333  0.26666667  0.43116000  1
  Ta  Ta2  1  0.53333333  0.26666667  0.63116000  1
  Ta  Ta2  1  0.53333333  0.26666667  0.83116000  1
  Ta  Ta2  1  0.53333333  0.46666667  0.03116000  1
  Ta  Ta2  1  0.53333333  0.46666667  0.23116000  1
  Ta  Ta2  1  0.53333333  0.46666667  0.43116000  1
  Ta  Ta2  1  0.53333333  0.46666667  0.63116000  1
  Ta  Ta2  1  0.53333333  0.46666667  0.83116000  1
  Ta  Ta2  1  0.53333333  0.66666667  0.03116000  1
  Ta  Ta2  1  0.53333333  0.66666667  0.23116000  1
  Ta  Ta2  1  0.53333333  0.66666667  0.43116000  1
  Ta  Ta2  1  0.53333333  0.66666667  0.63116000  1
  Ta  Ta2  1  0.53333333  0.66666667  0.83116000  1
  Ta  Ta2  1  0.53333333  0.86666667  0.03116000  1
  Ta  Ta2  1  0.53333333  0.86666667  0.23116000  1
  Ta  Ta2  1  0.53333333  0.86666667  0.43116000  1
  Ta  Ta2  1  0.53333333  0.86666667  0.63116000  1
  Ta  Ta2  1  0.53333333  0.86666667  0.83116000  1
  Ta  Ta2  1  0.73333333  0.06666667  0.03116000  1
  Ta  Ta2  1  0.73333333  0.06666667  0.23116000  1
  Ta  Ta2  1  0.73333333  0.06666667  0.43116000  1
  Ta  Ta2  1  0.73333333  0.06666667  0.63116000  1
  Ta  Ta2  1  0.73333333  0.06666667  0.83116000  1
  Ta  Ta2  1  0.73333333  0.26666667  0.03116000  1
  Ta  Ta2  1  0.73333333  0.26666667  0.23116000  1
  Ta  Ta2  1  0.73333333  0.26666667  0.43116000  1
  Ta  Ta2  1  0.73333333  0.26666667  0.63116000  1
  Ta  Ta2  1  0.73333333  0.26666667  0.83116000  1
  Ta  Ta2  1  0.73333333  0.46666667  0.03116000  1
  Ta  Ta2  1  0.73333333  0.46666667  0.23116000  1
  Ta  Ta2  1  0.73333333  0.46666667  0.43116000  1
  Ta  Ta2  1  0.73333333  0.46666667  0.63116000  1
  Ta  Ta2  1  0.73333333  0.46666667  0.83116000  1
  Ta  Ta2  1  0.73333333  0.66666667  0.03116000  1
  Ta  Ta2  1  0.73333333  0.66666667  0.23116000  1
  Ta  Ta2  1  0.73333333  0.66666667  0.43116000  1
  Ta  Ta2  1  0.73333333  0.66666667  0.63116000  1
  Ta  Ta2  1  0.73333333  0.66666667  0.83116000  1
  Ta  Ta2  1  0.73333333  0.86666667  0.03116000  1
  Ta  Ta2  1  0.73333333  0.86666667  0.23116000  1
  Ta  Ta2  1  0.73333333  0.86666667  0.43116000  1
  Ta  Ta2  1  0.73333333  0.86666667  0.63116000  1
  Ta  Ta2  1  0.73333333  0.86666667  0.83116000  1
  Ta  Ta2  1  0.93333333  0.06666667  0.03116000  1
  Ta  Ta2  1  0.93333333  0.06666667  0.23116000  1
  Ta  Ta2  1  0.93333333  0.06666667  0.43116000  1
  Ta  Ta2  1  0.93333333  0.06666667  0.63116000  1
  Ta  Ta2  1  0.93333333  0.06666667  0.83116000  1
  Ta  Ta2  1  0.93333333  0.26666667  0.03116000  1
  Ta  Ta2  1  0.93333333  0.26666667  0.23116000  1
  Ta  Ta2  1  0.93333333  0.26666667  0.43116000  1
  Ta  Ta2  1  0.93333333  0.26666667  0.63116000  1
  Ta  Ta2  1  0.93333333  0.26666667  0.83116000  1
  Ta  Ta2  1  0.93333333  0.46666667  0.03116000  1
  Ta  Ta2  1  0.93333333  0.46666667  0.23116000  1
  Ta  Ta2  1  0.93333333  0.46666667  0.43116000  1
  Ta  Ta2  1  0.93333333  0.46666667  0.63116000  1
  Ta  Ta2  1  0.93333333  0.46666667  0.83116000  1
  Ta  Ta2  1  0.93333333  0.66666667  0.03116000  1
  Ta  Ta2  1  0.93333333  0.66666667  0.23116000  1
  Ta  Ta2  1  0.93333333  0.66666667  0.43116000  1
  Ta  Ta2  1  0.93333333  0.66666667  0.63116000  1
  Ta  Ta2  1  0.93333333  0.66666667  0.83116000  1
  Ta  Ta2  1  0.93333333  0.86666667  0.03116000  1
  Ta  Ta2  1  0.93333333  0.86666667  0.23116000  1
  Ta  Ta2  1  0.93333333  0.86666667  0.43116000  1
  Ta  Ta2  1  0.93333333  0.86666667  0.63116000  1
  Ta  Ta2  1  0.93333333  0.86666667  0.83116000  1
  Co  Co1  1  0.06666667  0.13333333  0.02502800  1
  Co  Co1  1  0.06666667  0.13333333  0.22502800  1
  Co  Co1  1  0.06666667  0.13333333  0.42502800  1
  Co  Co1  1  0.06666667  0.13333333  0.62502800  1
  Co  Co1  1  0.06666667  0.13333333  0.82502800  1
  Co  Co1  1  0.06666667  0.33333333  0.02502800  1
  Co  Co1  1  0.06666667  0.33333333  0.22502800  1
  Co  Co1  1  0.06666667  0.33333333  0.42502800  1
  Co  Co1  1  0.06666667  0.33333333  0.62502800  1
  Co  Co1  1  0.06666667  0.33333333  0.82502800  1
  Co  Co1  1  0.06666667  0.53333333  0.02502800  1
  Co  Co1  1  0.06666667  0.53333333  0.22502800  1
  Co  Co1  1  0.06666667  0.53333333  0.42502800  1
  Co  Co1  1  0.06666667  0.53333333  0.62502800  1
  Co  Co1  1  0.06666667  0.53333333  0.82502800  1
  Co  Co1  1  0.06666667  0.73333333  0.02502800  1
  Co  Co1  1  0.06666667  0.73333333  0.22502800  1
  Co  Co1  1  0.06666667  0.73333333  0.42502800  1
  Co  Co1  1  0.06666667  0.73333333  0.62502800  1
  Co  Co1  1  0.06666667  0.73333333  0.82502800  1
  Co  Co1  1  0.06666667  0.93333333  0.02502800  1
  Co  Co1  1  0.06666667  0.93333333  0.22502800  1
  Co  Co1  1  0.06666667  0.93333333  0.42502800  1
  Co  Co1  1  0.06666667  0.93333333  0.62502800  1
  Co  Co1  1  0.06666667  0.93333333  0.82502800  1
  Co  Co1  1  0.26666667  0.13333333  0.02502800  1
  Co  Co1  1  0.26666667  0.13333333  0.22502800  1
  Co  Co1  1  0.26666667  0.13333333  0.42502800  1
  Co  Co1  1  0.26666667  0.13333333  0.62502800  1
  Co  Co1  1  0.26666667  0.13333333  0.82502800  1
  Co  Co1  1  0.26666667  0.33333333  0.02502800  1
  Co  Co1  1  0.26666667  0.33333333  0.22502800  1
  Co  Co1  1  0.26666667  0.33333333  0.42502800  1
  Co  Co1  1  0.26666667  0.33333333  0.62502800  1
  Co  Co1  1  0.26666667  0.33333333  0.82502800  1
  Co  Co1  1  0.26666667  0.53333333  0.02502800  1
  Co  Co1  1  0.26666667  0.53333333  0.22502800  1
  Co  Co1  1  0.26666667  0.53333333  0.42502800  1
  Co  Co1  1  0.26666667  0.53333333  0.62502800  1
  Co  Co1  1  0.26666667  0.53333333  0.82502800  1
  Co  Co1  1  0.26666667  0.73333333  0.02502800  1
  Co  Co1  1  0.26666667  0.73333333  0.22502800  1
  Co  Co1  1  0.26666667  0.73333333  0.42502800  1
  Co  Co1  1  0.26666667  0.73333333  0.62502800  1
  Co  Co1  1  0.26666667  0.73333333  0.82502800  1
  Co  Co1  1  0.26666667  0.93333333  0.02502800  1
  Co  Co1  1  0.26666667  0.93333333  0.22502800  1
  Co  Co1  1  0.26666667  0.93333333  0.42502800  1
  Co  Co1  1  0.26666667  0.93333333  0.62502800  1
  Co  Co1  1  0.26666667  0.93333333  0.82502800  1
  Co  Co1  1  0.46666667  0.13333333  0.02502800  1
  Co  Co1  1  0.46666667  0.13333333  0.22502800  1
  Co  Co1  1  0.46666667  0.13333333  0.42502800  1
  Co  Co1  1  0.46666667  0.13333333  0.62502800  1
  Co  Co1  1  0.46666667  0.13333333  0.82502800  1
  Co  Co1  1  0.46666667  0.33333333  0.02502800  1
  Co  Co1  1  0.46666667  0.33333333  0.22502800  1
  Co  Co1  1  0.46666667  0.33333333  0.42502800  1
  Co  Co1  1  0.46666667  0.33333333  0.62502800  1
  Co  Co1  1  0.46666667  0.33333333  0.82502800  1
  Co  Co1  1  0.46666667  0.53333333  0.02502800  1
  Co  Co1  1  0.46666667  0.53333333  0.22502800  1
  Co  Co1  1  0.46666667  0.53333333  0.42502800  1
  Co  Co1  1  0.46666667  0.53333333  0.62502800  1
  Co  Co1  1  0.46666667  0.53333333  0.82502800  1
  Co  Co1  1  0.46666667  0.73333333  0.02502800  1
  Co  Co1  1  0.46666667  0.73333333  0.22502800  1
  Co  Co1  1  0.46666667  0.73333333  0.42502800  1
  Co  Co1  1  0.46666667  0.73333333  0.62502800  1
  Co  Co1  1  0.46666667  0.73333333  0.82502800  1
  Co  Co1  1  0.46666667  0.93333333  0.02502800  1
  Co  Co1  1  0.46666667  0.93333333  0.22502800  1
  Co  Co1  1  0.46666667  0.93333333  0.42502800  1
  Co  Co1  1  0.46666667  0.93333333  0.62502800  1
  Co  Co1  1  0.46666667  0.93333333  0.82502800  1
  Co  Co1  1  0.66666667  0.13333333  0.02502800  1
  Co  Co1  1  0.66666667  0.13333333  0.22502800  1
  Co  Co1  1  0.66666667  0.13333333  0.42502800  1
  Co  Co1  1  0.66666667  0.13333333  0.62502800  1
  Co  Co1  1  0.66666667  0.13333333  0.82502800  1
  Co  Co1  1  0.66666667  0.33333333  0.02502800  1
  Co  Co1  1  0.66666667  0.33333333  0.22502800  1
  Co  Co1  1  0.66666667  0.33333333  0.42502800  1
  Co  Co1  1  0.66666667  0.33333333  0.62502800  1
  Co  Co1  1  0.66666667  0.33333333  0.82502800  1
  Co  Co1  1  0.66666667  0.53333333  0.02502800  1
  Co  Co1  1  0.66666667  0.53333333  0.22502800  1
  Co  Co1  1  0.66666667  0.53333333  0.42502800  1
  Co  Co1  1  0.66666667  0.53333333  0.62502800  1
  Co  Co1  1  0.66666667  0.53333333  0.82502800  1
  Co  Co1  1  0.66666667  0.73333333  0.02502800  1
  Co  Co1  1  0.66666667  0.73333333  0.22502800  1
  Co  Co1  1  0.66666667  0.73333333  0.42502800  1
  Co  Co1  1  0.66666667  0.73333333  0.62502800  1
  Co  Co1  1  0.66666667  0.73333333  0.82502800  1
  Co  Co1  1  0.66666667  0.93333333  0.02502800  1
  Co  Co1  1  0.66666667  0.93333333  0.22502800  1
  Co  Co1  1  0.66666667  0.93333333  0.42502800  1
  Co  Co1  1  0.66666667  0.93333333  0.62502800  1
  Co  Co1  1  0.66666667  0.93333333  0.82502800  1
  Co  Co1  1  0.86666667  0.13333333  0.02502800  1
  Co  Co1  1  0.86666667  0.13333333  0.22502800  1
  Co  Co1  1  0.86666667  0.13333333  0.42502800  1
  Co  Co1  1  0.86666667  0.13333333  0.62502800  1
  Co  Co1  1  0.86666667  0.13333333  0.82502800  1
  Co  Co1  1  0.86666667  0.33333333  0.02502800  1
  Co  Co1  1  0.86666667  0.33333333  0.22502800  1
  Co  Co1  1  0.86666667  0.33333333  0.42502800  1
  Co  Co1  1  0.86666667  0.33333333  0.62502800  1
  Co  Co1  1  0.86666667  0.33333333  0.82502800  1
  Co  Co1  1  0.86666667  0.53333333  0.02502800  1
  Co  Co1  1  0.86666667  0.53333333  0.22502800  1
  Co  Co1  1  0.86666667  0.53333333  0.42502800  1
  Co  Co1  1  0.86666667  0.53333333  0.62502800  1
  Co  Co1  1  0.86666667  0.53333333  0.82502800  1
  Co  Co1  1  0.86666667  0.73333333  0.02502800  1
  Co  Co1  1  0.86666667  0.73333333  0.22502800  1
  Co  Co1  1  0.86666667  0.73333333  0.42502800  1
  Co  Co1  1  0.86666667  0.73333333  0.62502800  1
  Co  Co1  1  0.86666667  0.73333333  0.82502800  1
  Co  Co1  1  0.86666667  0.93333333  0.02502800  1
  Co  Co1  1  0.86666667  0.93333333  0.22502800  1
  Co  Co1  1  0.86666667  0.93333333  0.42502800  1
  Co  Co1  1  0.86666667  0.93333333  0.62502800  1
  Co  Co1  1  0.86666667  0.93333333  0.82502800  1
  Co  Co1  1  0.13333333  0.06666667  0.12502800  1
  Co  Co1  1  0.13333333  0.06666667  0.32502800  1
  Co  Co1  1  0.13333333  0.06666667  0.52502800  1
  Co  Co1  1  0.13333333  0.06666667  0.72502800  1
  Co  Co1  1  0.13333333  0.06666667  0.92502800  1
  Co  Co1  1  0.13333333  0.26666667  0.12502800  1
  Co  Co1  1  0.13333333  0.26666667  0.32502800  1
  Co  Co1  1  0.13333333  0.26666667  0.52502800  1
  Co  Co1  1  0.13333333  0.26666667  0.72502800  1
  Co  Co1  1  0.13333333  0.26666667  0.92502800  1
  Co  Co1  1  0.13333333  0.46666667  0.12502800  1
  Co  Co1  1  0.13333333  0.46666667  0.32502800  1
  Co  Co1  1  0.13333333  0.46666667  0.52502800  1
  Co  Co1  1  0.13333333  0.46666667  0.72502800  1
  Co  Co1  1  0.13333333  0.46666667  0.92502800  1
  Co  Co1  1  0.13333333  0.66666667  0.12502800  1
  Co  Co1  1  0.13333333  0.66666667  0.32502800  1
  Co  Co1  1  0.13333333  0.66666667  0.52502800  1
  Co  Co1  1  0.13333333  0.66666667  0.72502800  1
  Co  Co1  1  0.13333333  0.66666667  0.92502800  1
  Co  Co1  1  0.13333333  0.86666667  0.12502800  1
  Co  Co1  1  0.13333333  0.86666667  0.32502800  1
  Co  Co1  1  0.13333333  0.86666667  0.52502800  1
  Co  Co1  1  0.13333333  0.86666667  0.72502800  1
  Co  Co1  1  0.13333333  0.86666667  0.92502800  1
  Co  Co1  1  0.33333333  0.06666667  0.12502800  1
  Co  Co1  1  0.33333333  0.06666667  0.32502800  1
  Co  Co1  1  0.33333333  0.06666667  0.52502800  1
  Co  Co1  1  0.33333333  0.06666667  0.72502800  1
  Co  Co1  1  0.33333333  0.06666667  0.92502800  1
  Co  Co1  1  0.33333333  0.26666667  0.12502800  1
  Co  Co1  1  0.33333333  0.26666667  0.32502800  1
  Co  Co1  1  0.33333333  0.26666667  0.52502800  1
  Co  Co1  1  0.33333333  0.26666667  0.72502800  1
  Co  Co1  1  0.33333333  0.26666667  0.92502800  1
  Co  Co1  1  0.33333333  0.46666667  0.12502800  1
  Co  Co1  1  0.33333333  0.46666667  0.32502800  1
  Co  Co1  1  0.33333333  0.46666667  0.52502800  1
  Co  Co1  1  0.33333333  0.46666667  0.72502800  1
  Co  Co1  1  0.33333333  0.46666667  0.92502800  1
  Co  Co1  1  0.33333333  0.66666667  0.12502800  1
  Co  Co1  1  0.33333333  0.66666667  0.32502800  1
  Co  Co1  1  0.33333333  0.66666667  0.52502800  1
  Co  Co1  1  0.33333333  0.66666667  0.72502800  1
  Co  Co1  1  0.33333333  0.66666667  0.92502800  1
  Co  Co1  1  0.33333333  0.86666667  0.12502800  1
  Co  Co1  1  0.33333333  0.86666667  0.32502800  1
  Co  Co1  1  0.33333333  0.86666667  0.52502800  1
  Co  Co1  1  0.33333333  0.86666667  0.72502800  1
  Co  Co1  1  0.33333333  0.86666667  0.92502800  1
  Co  Co1  1  0.53333333  0.06666667  0.12502800  1
  Co  Co1  1  0.53333333  0.06666667  0.32502800  1
  Co  Co1  1  0.53333333  0.06666667  0.52502800  1
  Co  Co1  1  0.53333333  0.06666667  0.72502800  1
  Co  Co1  1  0.53333333  0.06666667  0.92502800  1
  Co  Co1  1  0.53333333  0.26666667  0.12502800  1
  Co  Co1  1  0.53333333  0.26666667  0.32502800  1
  Co  Co1  1  0.53333333  0.26666667  0.52502800  1
  Co  Co1  1  0.53333333  0.26666667  0.72502800  1
  Co  Co1  1  0.53333333  0.26666667  0.92502800  1
  Co  Co1  1  0.53333333  0.46666667  0.12502800  1
  Co  Co1  1  0.53333333  0.46666667  0.32502800  1
  Co  Co1  1  0.53333333  0.46666667  0.52502800  1
  Co  Co1  1  0.53333333  0.46666667  0.72502800  1
  Co  Co1  1  0.53333333  0.46666667  0.92502800  1
  Co  Co1  1  0.53333333  0.66666667  0.12502800  1
  Co  Co1  1  0.53333333  0.66666667  0.32502800  1
  Co  Co1  1  0.53333333  0.66666667  0.52502800  1
  Co  Co1  1  0.53333333  0.66666667  0.72502800  1
  Co  Co1  1  0.53333333  0.66666667  0.92502800  1
  Co  Co1  1  0.53333333  0.86666667  0.12502800  1
  Co  Co1  1  0.53333333  0.86666667  0.32502800  1
  Co  Co1  1  0.53333333  0.86666667  0.52502800  1
  Co  Co1  1  0.53333333  0.86666667  0.72502800  1
  Co  Co1  1  0.53333333  0.86666667  0.92502800  1
  Co  Co1  1  0.73333333  0.06666667  0.12502800  1
  Co  Co1  1  0.73333333  0.06666667  0.32502800  1
  Co  Co1  1  0.73333333  0.06666667  0.52502800  1
  Co  Co1  1  0.73333333  0.06666667  0.72502800  1
  Co  Co1  1  0.73333333  0.06666667  0.92502800  1
  Co  Co1  1  0.73333333  0.26666667  0.12502800  1
  Co  Co1  1  0.73333333  0.26666667  0.32502800  1
  Co  Co1  1  0.73333333  0.26666667  0.52502800  1
  Co  Co1  1  0.73333333  0.26666667  0.72502800  1
  Co  Co1  1  0.73333333  0.26666667  0.92502800  1
  Co  Co1  1  0.73333333  0.46666667  0.12502800  1
  Co  Co1  1  0.73333333  0.46666667  0.32502800  1
  Co  Co1  1  0.73333333  0.46666667  0.52502800  1
  Co  Co1  1  0.73333333  0.46666667  0.72502800  1
  Co  Co1  1  0.73333333  0.46666667  0.92502800  1
  Co  Co1  1  0.73333333  0.66666667  0.12502800  1
  Co  Co1  1  0.73333333  0.66666667  0.32502800  1
  Co  Co1  1  0.73333333  0.66666667  0.52502800  1
  Co  Co1  1  0.73333333  0.66666667  0.72502800  1
  Co  Co1  1  0.73333333  0.66666667  0.92502800  1
  Co  Co1  1  0.73333333  0.86666667  0.12502800  1
  Co  Co1  1  0.73333333  0.86666667  0.32502800  1
  Co  Co1  1  0.73333333  0.86666667  0.52502800  1
  Co  Co1  1  0.73333333  0.86666667  0.72502800  1
  Co  Co1  1  0.73333333  0.86666667  0.92502800  1
  Co  Co1  1  0.93333333  0.06666667  0.12502800  1
  Co  Co1  1  0.93333333  0.06666667  0.32502800  1
  Co  Co1  1  0.93333333  0.06666667  0.52502800  1
  Co  Co1  1  0.93333333  0.06666667  0.72502800  1
  Co  Co1  1  0.93333333  0.06666667  0.92502800  1
  Co  Co1  1  0.93333333  0.26666667  0.12502800  1
  Co  Co1  1  0.93333333  0.26666667  0.32502800  1
  Co  Co1  1  0.93333333  0.26666667  0.52502800  1
  Co  Co1  1  0.93333333  0.26666667  0.72502800  1
  Co  Co1  1  0.93333333  0.26666667  0.92502800  1
  Co  Co1  1  0.93333333  0.46666667  0.12502800  1
  Co  Co1  1  0.93333333  0.46666667  0.32502800  1
  Co  Co1  1  0.93333333  0.46666667  0.52502800  1
  Co  Co1  1  0.93333333  0.46666667  0.72502800  1
  Co  Co1  1  0.93333333  0.46666667  0.92502800  1
  Co  Co1  1  0.93333333  0.66666667  0.12502800  1
  Co  Co1  1  0.93333333  0.66666667  0.32502800  1
  Co  Co1  1  0.93333333  0.66666667  0.52502800  1
  Co  Co1  1  0.93333333  0.66666667  0.72502800  1
  Co  Co1  1  0.93333333  0.66666667  0.92502800  1
  Co  Co1  1  0.93333333  0.86666667  0.12502800  1
  Co  Co1  1  0.93333333  0.86666667  0.32502800  1
  Co  Co1  1  0.93333333  0.86666667  0.52502800  1
  Co  Co1  1  0.93333333  0.86666667  0.72502800  1
  Co  Co1  1  0.93333333  0.86666667  0.92502800  1
  Co  Co1  1  0.06666667  0.13333333  0.07497200  1
  Co  Co1  1  0.06666667  0.13333333  0.27497200  1
  Co  Co1  1  0.06666667  0.13333333  0.47497200  1
  Co  Co1  1  0.06666667  0.13333333  0.67497200  1
  Co  Co1  1  0.06666667  0.13333333  0.87497200  1
  Co  Co1  1  0.06666667  0.33333333  0.07497200  1
  Co  Co1  1  0.06666667  0.33333333  0.27497200  1
  Co  Co1  1  0.06666667  0.33333333  0.47497200  1
  Co  Co1  1  0.06666667  0.33333333  0.67497200  1
  Co  Co1  1  0.06666667  0.33333333  0.87497200  1
  Co  Co1  1  0.06666667  0.53333333  0.07497200  1
  Co  Co1  1  0.06666667  0.53333333  0.27497200  1
  Co  Co1  1  0.06666667  0.53333333  0.47497200  1
  Co  Co1  1  0.06666667  0.53333333  0.67497200  1
  Co  Co1  1  0.06666667  0.53333333  0.87497200  1
  Co  Co1  1  0.06666667  0.73333333  0.07497200  1
  Co  Co1  1  0.06666667  0.73333333  0.27497200  1
  Co  Co1  1  0.06666667  0.73333333  0.47497200  1
  Co  Co1  1  0.06666667  0.73333333  0.67497200  1
  Co  Co1  1  0.06666667  0.73333333  0.87497200  1
  Co  Co1  1  0.06666667  0.93333333  0.07497200  1
  Co  Co1  1  0.06666667  0.93333333  0.27497200  1
  Co  Co1  1  0.06666667  0.93333333  0.47497200  1
  Co  Co1  1  0.06666667  0.93333333  0.67497200  1
  Co  Co1  1  0.06666667  0.93333333  0.87497200  1
  Co  Co1  1  0.26666667  0.13333333  0.07497200  1
  Co  Co1  1  0.26666667  0.13333333  0.27497200  1
  Co  Co1  1  0.26666667  0.13333333  0.47497200  1
  Co  Co1  1  0.26666667  0.13333333  0.67497200  1
  Co  Co1  1  0.26666667  0.13333333  0.87497200  1
  Co  Co1  1  0.26666667  0.33333333  0.07497200  1
  Co  Co1  1  0.26666667  0.33333333  0.27497200  1
  Co  Co1  1  0.26666667  0.33333333  0.47497200  1
  Co  Co1  1  0.26666667  0.33333333  0.67497200  1
  Co  Co1  1  0.26666667  0.33333333  0.87497200  1
  Co  Co1  1  0.26666667  0.53333333  0.07497200  1
  Co  Co1  1  0.26666667  0.53333333  0.27497200  1
  Co  Co1  1  0.26666667  0.53333333  0.47497200  1
  Co  Co1  1  0.26666667  0.53333333  0.67497200  1
  Co  Co1  1  0.26666667  0.53333333  0.87497200  1
  Co  Co1  1  0.26666667  0.73333333  0.07497200  1
  Co  Co1  1  0.26666667  0.73333333  0.27497200  1
  Co  Co1  1  0.26666667  0.73333333  0.47497200  1
  Co  Co1  1  0.26666667  0.73333333  0.67497200  1
  Co  Co1  1  0.26666667  0.73333333  0.87497200  1
  Co  Co1  1  0.26666667  0.93333333  0.07497200  1
  Co  Co1  1  0.26666667  0.93333333  0.27497200  1
  Co  Co1  1  0.26666667  0.93333333  0.47497200  1
  Co  Co1  1  0.26666667  0.93333333  0.67497200  1
  Co  Co1  1  0.26666667  0.93333333  0.87497200  1
  Co  Co1  1  0.46666667  0.13333333  0.07497200  1
  Co  Co1  1  0.46666667  0.13333333  0.27497200  1
  Co  Co1  1  0.46666667  0.13333333  0.47497200  1
  Co  Co1  1  0.46666667  0.13333333  0.67497200  1
  Co  Co1  1  0.46666667  0.13333333  0.87497200  1
  Co  Co1  1  0.46666667  0.33333333  0.07497200  1
  Co  Co1  1  0.46666667  0.33333333  0.27497200  1
  Co  Co1  1  0.46666667  0.33333333  0.47497200  1
  Co  Co1  1  0.46666667  0.33333333  0.67497200  1
  Co  Co1  1  0.46666667  0.33333333  0.87497200  1
  Co  Co1  1  0.46666667  0.53333333  0.07497200  1
  Co  Co1  1  0.46666667  0.53333333  0.27497200  1
  Co  Co1  1  0.46666667  0.53333333  0.47497200  1
  Co  Co1  1  0.46666667  0.53333333  0.67497200  1
  Co  Co1  1  0.46666667  0.53333333  0.87497200  1
  Co  Co1  1  0.46666667  0.73333333  0.07497200  1
  Co  Co1  1  0.46666667  0.73333333  0.27497200  1
  Co  Co1  1  0.46666667  0.73333333  0.47497200  1
  Co  Co1  1  0.46666667  0.73333333  0.67497200  1
  Co  Co1  1  0.46666667  0.73333333  0.87497200  1
  Co  Co1  1  0.46666667  0.93333333  0.07497200  1
  Co  Co1  1  0.46666667  0.93333333  0.27497200  1
  Co  Co1  1  0.46666667  0.93333333  0.47497200  1
  Co  Co1  1  0.46666667  0.93333333  0.67497200  1
  Co  Co1  1  0.46666667  0.93333333  0.87497200  1
  Co  Co1  1  0.66666667  0.13333333  0.07497200  1
  Co  Co1  1  0.66666667  0.13333333  0.27497200  1
  Co  Co1  1  0.66666667  0.13333333  0.47497200  1
  Co  Co1  1  0.66666667  0.13333333  0.67497200  1
  Co  Co1  1  0.66666667  0.13333333  0.87497200  1
  Co  Co1  1  0.66666667  0.33333333  0.07497200  1
  Co  Co1  1  0.66666667  0.33333333  0.27497200  1
  Co  Co1  1  0.66666667  0.33333333  0.47497200  1
  Co  Co1  1  0.66666667  0.33333333  0.67497200  1
  Co  Co1  1  0.66666667  0.33333333  0.87497200  1
  Co  Co1  1  0.66666667  0.53333333  0.07497200  1
  Co  Co1  1  0.66666667  0.53333333  0.27497200  1
  Co  Co1  1  0.66666667  0.53333333  0.47497200  1
  Co  Co1  1  0.66666667  0.53333333  0.67497200  1
  Co  Co1  1  0.66666667  0.53333333  0.87497200  1
  Co  Co1  1  0.66666667  0.73333333  0.07497200  1
  Co  Co1  1  0.66666667  0.73333333  0.27497200  1
  Co  Co1  1  0.66666667  0.73333333  0.47497200  1
  Co  Co1  1  0.66666667  0.73333333  0.67497200  1
  Co  Co1  1  0.66666667  0.73333333  0.87497200  1
  Co  Co1  1  0.66666667  0.93333333  0.07497200  1
  Co  Co1  1  0.66666667  0.93333333  0.27497200  1
  Co  Co1  1  0.66666667  0.93333333  0.47497200  1
  Co  Co1  1  0.66666667  0.93333333  0.67497200  1
  Co  Co1  1  0.66666667  0.93333333  0.87497200  1
  Co  Co1  1  0.86666667  0.13333333  0.07497200  1
  Co  Co1  1  0.86666667  0.13333333  0.27497200  1
  Co  Co1  1  0.86666667  0.13333333  0.47497200  1
  Co  Co1  1  0.86666667  0.13333333  0.67497200  1
  Co  Co1  1  0.86666667  0.13333333  0.87497200  1
  Co  Co1  1  0.86666667  0.33333333  0.07497200  1
  Co  Co1  1  0.86666667  0.33333333  0.27497200  1
  Co  Co1  1  0.86666667  0.33333333  0.47497200  1
  Co  Co1  1  0.86666667  0.33333333  0.67497200  1
  Co  Co1  1  0.86666667  0.33333333  0.87497200  1
  Co  Co1  1  0.86666667  0.53333333  0.07497200  1
  Co  Co1  1  0.86666667  0.53333333  0.27497200  1
  Co  Co1  1  0.86666667  0.53333333  0.47497200  1
  Co  Co1  1  0.86666667  0.53333333  0.67497200  1
  Co  Co1  1  0.86666667  0.53333333  0.87497200  1
  Co  Co1  1  0.86666667  0.73333333  0.07497200  1
  Co  Co1  1  0.86666667  0.73333333  0.27497200  1
  Co  Co1  1  0.86666667  0.73333333  0.47497200  1
  Co  Co1  1  0.86666667  0.73333333  0.67497200  1
  Co  Co1  1  0.86666667  0.73333333  0.87497200  1
  Co  Co1  1  0.86666667  0.93333333  0.07497200  1
  Co  Co1  1  0.86666667  0.93333333  0.27497200  1
  Co  Co1  1  0.86666667  0.93333333  0.47497200  1
  Co  Co1  1  0.86666667  0.93333333  0.67497200  1
  Co  Co1  1  0.86666667  0.93333333  0.87497200  1
  Co  Co1  1  0.13333333  0.06666667  0.17497200  1
  Co  Co1  1  0.13333333  0.06666667  0.37497200  1
  Co  Co1  1  0.13333333  0.06666667  0.57497200  1
  Co  Co1  1  0.13333333  0.06666667  0.77497200  1
  Co  Co1  1  0.13333333  0.06666667  0.97497200  1
  Co  Co1  1  0.13333333  0.26666667  0.17497200  1
  Co  Co1  1  0.13333333  0.26666667  0.37497200  1
  Co  Co1  1  0.13333333  0.26666667  0.57497200  1
  Co  Co1  1  0.13333333  0.26666667  0.77497200  1
  Co  Co1  1  0.13333333  0.26666667  0.97497200  1
  Co  Co1  1  0.13333333  0.46666667  0.17497200  1
  Co  Co1  1  0.13333333  0.46666667  0.37497200  1
  Co  Co1  1  0.13333333  0.46666667  0.57497200  1
  Co  Co1  1  0.13333333  0.46666667  0.77497200  1
  Co  Co1  1  0.13333333  0.46666667  0.97497200  1
  Co  Co1  1  0.13333333  0.66666667  0.17497200  1
  Co  Co1  1  0.13333333  0.66666667  0.37497200  1
  Co  Co1  1  0.13333333  0.66666667  0.57497200  1
  Co  Co1  1  0.13333333  0.66666667  0.77497200  1
  Co  Co1  1  0.13333333  0.66666667  0.97497200  1
  Co  Co1  1  0.13333333  0.86666667  0.17497200  1
  Co  Co1  1  0.13333333  0.86666667  0.37497200  1
  Co  Co1  1  0.13333333  0.86666667  0.57497200  1
  Co  Co1  1  0.13333333  0.86666667  0.77497200  1
  Co  Co1  1  0.13333333  0.86666667  0.97497200  1
  Co  Co1  1  0.33333333  0.06666667  0.17497200  1
  Co  Co1  1  0.33333333  0.06666667  0.37497200  1
  Co  Co1  1  0.33333333  0.06666667  0.57497200  1
  Co  Co1  1  0.33333333  0.06666667  0.77497200  1
  Co  Co1  1  0.33333333  0.06666667  0.97497200  1
  Co  Co1  1  0.33333333  0.26666667  0.17497200  1
  Co  Co1  1  0.33333333  0.26666667  0.37497200  1
  Co  Co1  1  0.33333333  0.26666667  0.57497200  1
  Co  Co1  1  0.33333333  0.26666667  0.77497200  1
  Co  Co1  1  0.33333333  0.26666667  0.97497200  1
  Co  Co1  1  0.33333333  0.46666667  0.17497200  1
  Co  Co1  1  0.33333333  0.46666667  0.37497200  1
  Co  Co1  1  0.33333333  0.46666667  0.57497200  1
  Co  Co1  1  0.33333333  0.46666667  0.77497200  1
  Co  Co1  1  0.33333333  0.46666667  0.97497200  1
  Co  Co1  1  0.33333333  0.66666667  0.17497200  1
  Co  Co1  1  0.33333333  0.66666667  0.37497200  1
  Co  Co1  1  0.33333333  0.66666667  0.57497200  1
  Co  Co1  1  0.33333333  0.66666667  0.77497200  1
  Co  Co1  1  0.33333333  0.66666667  0.97497200  1
  Co  Co1  1  0.33333333  0.86666667  0.17497200  1
  Co  Co1  1  0.33333333  0.86666667  0.37497200  1
  Co  Co1  1  0.33333333  0.86666667  0.57497200  1
  Co  Co1  1  0.33333333  0.86666667  0.77497200  1
  Co  Co1  1  0.33333333  0.86666667  0.97497200  1
  Co  Co1  1  0.53333333  0.06666667  0.17497200  1
  Co  Co1  1  0.53333333  0.06666667  0.37497200  1
  Co  Co1  1  0.53333333  0.06666667  0.57497200  1
  Co  Co1  1  0.53333333  0.06666667  0.77497200  1
  Co  Co1  1  0.53333333  0.06666667  0.97497200  1
  Co  Co1  1  0.53333333  0.26666667  0.17497200  1
  Co  Co1  1  0.53333333  0.26666667  0.37497200  1
  Co  Co1  1  0.53333333  0.26666667  0.57497200  1
  Co  Co1  1  0.53333333  0.26666667  0.77497200  1
  Co  Co1  1  0.53333333  0.26666667  0.97497200  1
  Co  Co1  1  0.53333333  0.46666667  0.17497200  1
  Co  Co1  1  0.53333333  0.46666667  0.37497200  1
  Co  Co1  1  0.53333333  0.46666667  0.57497200  1
  Co  Co1  1  0.53333333  0.46666667  0.77497200  1
  Co  Co1  1  0.53333333  0.46666667  0.97497200  1
  Co  Co1  1  0.53333333  0.66666667  0.17497200  1
  Co  Co1  1  0.53333333  0.66666667  0.37497200  1
  Co  Co1  1  0.53333333  0.66666667  0.57497200  1
  Co  Co1  1  0.53333333  0.66666667  0.77497200  1
  Co  Co1  1  0.53333333  0.66666667  0.97497200  1
  Co  Co1  1  0.53333333  0.86666667  0.17497200  1
  Co  Co1  1  0.53333333  0.86666667  0.37497200  1
  Co  Co1  1  0.53333333  0.86666667  0.57497200  1
  Co  Co1  1  0.53333333  0.86666667  0.77497200  1
  Co  Co1  1  0.53333333  0.86666667  0.97497200  1
  Co  Co1  1  0.73333333  0.06666667  0.17497200  1
  Co  Co1  1  0.73333333  0.06666667  0.37497200  1
  Co  Co1  1  0.73333333  0.06666667  0.57497200  1
  Co  Co1  1  0.73333333  0.06666667  0.77497200  1
  Co  Co1  1  0.73333333  0.06666667  0.97497200  1
  Co  Co1  1  0.73333333  0.26666667  0.17497200  1
  Co  Co1  1  0.73333333  0.26666667  0.37497200  1
  Co  Co1  1  0.73333333  0.26666667  0.57497200  1
  Co  Co1  1  0.73333333  0.26666667  0.77497200  1
  Co  Co1  1  0.73333333  0.26666667  0.97497200  1
  Co  Co1  1  0.73333333  0.46666667  0.17497200  1
  Co  Co1  1  0.73333333  0.46666667  0.37497200  1
  Co  Co1  1  0.73333333  0.46666667  0.57497200  1
  Co  Co1  1  0.73333333  0.46666667  0.77497200  1
  Co  Co1  1  0.73333333  0.46666667  0.97497200  1
  Co  Co1  1  0.73333333  0.66666667  0.17497200  1
  Co  Co1  1  0.73333333  0.66666667  0.37497200  1
  Co  Co1  1  0.73333333  0.66666667  0.57497200  1
  Co  Co1  1  0.73333333  0.66666667  0.77497200  1
  Co  Co1  1  0.73333333  0.66666667  0.97497200  1
  Co  Co1  1  0.73333333  0.86666667  0.17497200  1
  Co  Co1  1  0.73333333  0.86666667  0.37497200  1
  Co  Co1  1  0.73333333  0.86666667  0.57497200  1
  Co  Co1  1  0.73333333  0.86666667  0.77497200  1
  Co  Co1  1  0.73333333  0.86666667  0.97497200  1
  Co  Co1  1  0.93333333  0.06666667  0.17497200  1
  Co  Co1  1  0.93333333  0.06666667  0.37497200  1
  Co  Co1  1  0.93333333  0.06666667  0.57497200  1
  Co  Co1  1  0.93333333  0.06666667  0.77497200  1
  Co  Co1  1  0.93333333  0.06666667  0.97497200  1
  Co  Co1  1  0.93333333  0.26666667  0.17497200  1
  Co  Co1  1  0.93333333  0.26666667  0.37497200  1
  Co  Co1  1  0.93333333  0.26666667  0.57497200  1
  Co  Co1  1  0.93333333  0.26666667  0.77497200  1
  Co  Co1  1  0.93333333  0.26666667  0.97497200  1
  Co  Co1  1  0.93333333  0.46666667  0.17497200  1
  Co  Co1  1  0.93333333  0.46666667  0.37497200  1
  Co  Co1  1  0.93333333  0.46666667  0.57497200  1
  Co  Co1  1  0.93333333  0.46666667  0.77497200  1
  Co  Co1  1  0.93333333  0.46666667  0.97497200  1
  Co  Co1  1  0.93333333  0.66666667  0.17497200  1
  Co  Co1  1  0.93333333  0.66666667  0.37497200  1
  Co  Co1  1  0.93333333  0.66666667  0.57497200  1
  Co  Co1  1  0.93333333  0.66666667  0.77497200  1
  Co  Co1  1  0.93333333  0.66666667  0.97497200  1
  Co  Co1  1  0.93333333  0.86666667  0.17497200  1
  Co  Co1  1  0.93333333  0.86666667  0.37497200  1
  Co  Co1  1  0.93333333  0.86666667  0.57497200  1
  Co  Co1  1  0.93333333  0.86666667  0.77497200  1
  Co  Co1  1  0.93333333  0.86666667  0.97497200  1
  Co  Co3  1  0.03285800  0.06571600  0.05000000  1
  Co  Co3  1  0.03285800  0.06571600  0.25000000  1
  Co  Co3  1  0.03285800  0.06571600  0.45000000  1
  Co  Co3  1  0.03285800  0.06571600  0.65000000  1
  Co  Co3  1  0.03285800  0.06571600  0.85000000  1
  Co  Co3  1  0.03285800  0.26571600  0.05000000  1
  Co  Co3  1  0.03285800  0.26571600  0.25000000  1
  Co  Co3  1  0.03285800  0.26571600  0.45000000  1
  Co  Co3  1  0.03285800  0.26571600  0.65000000  1
  Co  Co3  1  0.03285800  0.26571600  0.85000000  1
  Co  Co3  1  0.03285800  0.46571600  0.05000000  1
  Co  Co3  1  0.03285800  0.46571600  0.25000000  1
  Co  Co3  1  0.03285800  0.46571600  0.45000000  1
  Co  Co3  1  0.03285800  0.46571600  0.65000000  1
  Co  Co3  1  0.03285800  0.46571600  0.85000000  1
  Co  Co3  1  0.03285800  0.66571600  0.05000000  1
  Co  Co3  1  0.03285800  0.66571600  0.25000000  1
  Co  Co3  1  0.03285800  0.66571600  0.45000000  1
  Co  Co3  1  0.03285800  0.66571600  0.65000000  1
  Co  Co3  1  0.03285800  0.66571600  0.85000000  1
  Co  Co3  1  0.03285800  0.86571600  0.05000000  1
  Co  Co3  1  0.03285800  0.86571600  0.25000000  1
  Co  Co3  1  0.03285800  0.86571600  0.45000000  1
  Co  Co3  1  0.03285800  0.86571600  0.65000000  1
  Co  Co3  1  0.03285800  0.86571600  0.85000000  1
  Co  Co3  1  0.23285800  0.06571600  0.05000000  1
  Co  Co3  1  0.23285800  0.06571600  0.25000000  1
  Co  Co3  1  0.23285800  0.06571600  0.45000000  1
  Co  Co3  1  0.23285800  0.06571600  0.65000000  1
  Co  Co3  1  0.23285800  0.06571600  0.85000000  1
  Co  Co3  1  0.23285800  0.26571600  0.05000000  1
  Co  Co3  1  0.23285800  0.26571600  0.25000000  1
  Co  Co3  1  0.23285800  0.26571600  0.45000000  1
  Co  Co3  1  0.23285800  0.26571600  0.65000000  1
  Co  Co3  1  0.23285800  0.26571600  0.85000000  1
  Co  Co3  1  0.23285800  0.46571600  0.05000000  1
  Co  Co3  1  0.23285800  0.46571600  0.25000000  1
  Co  Co3  1  0.23285800  0.46571600  0.45000000  1
  Co  Co3  1  0.23285800  0.46571600  0.65000000  1
  Co  Co3  1  0.23285800  0.46571600  0.85000000  1
  Co  Co3  1  0.23285800  0.66571600  0.05000000  1
  Co  Co3  1  0.23285800  0.66571600  0.25000000  1
  Co  Co3  1  0.23285800  0.66571600  0.45000000  1
  Co  Co3  1  0.23285800  0.66571600  0.65000000  1
  Co  Co3  1  0.23285800  0.66571600  0.85000000  1
  Co  Co3  1  0.23285800  0.86571600  0.05000000  1
  Co  Co3  1  0.23285800  0.86571600  0.25000000  1
  Co  Co3  1  0.23285800  0.86571600  0.45000000  1
  Co  Co3  1  0.23285800  0.86571600  0.65000000  1
  Co  Co3  1  0.23285800  0.86571600  0.85000000  1
  Co  Co3  1  0.43285800  0.06571600  0.05000000  1
  Co  Co3  1  0.43285800  0.06571600  0.25000000  1
  Co  Co3  1  0.43285800  0.06571600  0.45000000  1
  Co  Co3  1  0.43285800  0.06571600  0.65000000  1
  Co  Co3  1  0.43285800  0.06571600  0.85000000  1
  Co  Co3  1  0.43285800  0.26571600  0.05000000  1
  Co  Co3  1  0.43285800  0.26571600  0.25000000  1
  Co  Co3  1  0.43285800  0.26571600  0.45000000  1
  Co  Co3  1  0.43285800  0.26571600  0.65000000  1
  Co  Co3  1  0.43285800  0.26571600  0.85000000  1
  Co  Co3  1  0.43285800  0.46571600  0.05000000  1
  Co  Co3  1  0.43285800  0.46571600  0.25000000  1
  Co  Co3  1  0.43285800  0.46571600  0.45000000  1
  Co  Co3  1  0.43285800  0.46571600  0.65000000  1
  Co  Co3  1  0.43285800  0.46571600  0.85000000  1
  Co  Co3  1  0.43285800  0.66571600  0.05000000  1
  Co  Co3  1  0.43285800  0.66571600  0.25000000  1
  Co  Co3  1  0.43285800  0.66571600  0.45000000  1
  Co  Co3  1  0.43285800  0.66571600  0.65000000  1
  Co  Co3  1  0.43285800  0.66571600  0.85000000  1
  Co  Co3  1  0.43285800  0.86571600  0.05000000  1
  Co  Co3  1  0.43285800  0.86571600  0.25000000  1
  Co  Co3  1  0.43285800  0.86571600  0.45000000  1
  Co  Co3  1  0.43285800  0.86571600  0.65000000  1
  Co  Co3  1  0.43285800  0.86571600  0.85000000  1
  Co  Co3  1  0.63285800  0.06571600  0.05000000  1
  Co  Co3  1  0.63285800  0.06571600  0.25000000  1
  Co  Co3  1  0.63285800  0.06571600  0.45000000  1
  Co  Co3  1  0.63285800  0.06571600  0.65000000  1
  Co  Co3  1  0.63285800  0.06571600  0.85000000  1
  Co  Co3  1  0.63285800  0.26571600  0.05000000  1
  Co  Co3  1  0.63285800  0.26571600  0.25000000  1
  Co  Co3  1  0.63285800  0.26571600  0.45000000  1
  Co  Co3  1  0.63285800  0.26571600  0.65000000  1
  Co  Co3  1  0.63285800  0.26571600  0.85000000  1
  Co  Co3  1  0.63285800  0.46571600  0.05000000  1
  Co  Co3  1  0.63285800  0.46571600  0.25000000  1
  Co  Co3  1  0.63285800  0.46571600  0.45000000  1
  Co  Co3  1  0.63285800  0.46571600  0.65000000  1
  Co  Co3  1  0.63285800  0.46571600  0.85000000  1
  Co  Co3  1  0.63285800  0.66571600  0.05000000  1
  Co  Co3  1  0.63285800  0.66571600  0.25000000  1
  Co  Co3  1  0.63285800  0.66571600  0.45000000  1
  Co  Co3  1  0.63285800  0.66571600  0.65000000  1
  Co  Co3  1  0.63285800  0.66571600  0.85000000  1
  Co  Co3  1  0.63285800  0.86571600  0.05000000  1
  Co  Co3  1  0.63285800  0.86571600  0.25000000  1
  Co  Co3  1  0.63285800  0.86571600  0.45000000  1
  Co  Co3  1  0.63285800  0.86571600  0.65000000  1
  Co  Co3  1  0.63285800  0.86571600  0.85000000  1
  Co  Co3  1  0.83285800  0.06571600  0.05000000  1
  Co  Co3  1  0.83285800  0.06571600  0.25000000  1
  Co  Co3  1  0.83285800  0.06571600  0.45000000  1
  Co  Co3  1  0.83285800  0.06571600  0.65000000  1
  Co  Co3  1  0.83285800  0.06571600  0.85000000  1
  Co  Co3  1  0.83285800  0.26571600  0.05000000  1
  Co  Co3  1  0.83285800  0.26571600  0.25000000  1
  Co  Co3  1  0.83285800  0.26571600  0.45000000  1
  Co  Co3  1  0.83285800  0.26571600  0.65000000  1
  Co  Co3  1  0.83285800  0.26571600  0.85000000  1
  Co  Co3  1  0.83285800  0.46571600  0.05000000  1
  Co  Co3  1  0.83285800  0.46571600  0.25000000  1
  Co  Co3  1  0.83285800  0.46571600  0.45000000  1
  Co  Co3  1  0.83285800  0.46571600  0.65000000  1
  Co  Co3  1  0.83285800  0.46571600  0.85000000  1
  Co  Co3  1  0.83285800  0.66571600  0.05000000  1
  Co  Co3  1  0.83285800  0.66571600  0.25000000  1
  Co  Co3  1  0.83285800  0.66571600  0.45000000  1
  Co  Co3  1  0.83285800  0.66571600  0.65000000  1
  Co  Co3  1  0.83285800  0.66571600  0.85000000  1
  Co  Co3  1  0.83285800  0.86571600  0.05000000  1
  Co  Co3  1  0.83285800  0.86571600  0.25000000  1
  Co  Co3  1  0.83285800  0.86571600  0.45000000  1
  Co  Co3  1  0.83285800  0.86571600  0.65000000  1
  Co  Co3  1  0.83285800  0.86571600  0.85000000  1
  Co  Co3  1  0.16714200  0.03285800  0.15000000  1
  Co  Co3  1  0.16714200  0.03285800  0.35000000  1
  Co  Co3  1  0.16714200  0.03285800  0.55000000  1
  Co  Co3  1  0.16714200  0.03285800  0.75000000  1
  Co  Co3  1  0.16714200  0.03285800  0.95000000  1
  Co  Co3  1  0.16714200  0.23285800  0.15000000  1
  Co  Co3  1  0.16714200  0.23285800  0.35000000  1
  Co  Co3  1  0.16714200  0.23285800  0.55000000  1
  Co  Co3  1  0.16714200  0.23285800  0.75000000  1
  Co  Co3  1  0.16714200  0.23285800  0.95000000  1
  Co  Co3  1  0.16714200  0.43285800  0.15000000  1
  Co  Co3  1  0.16714200  0.43285800  0.35000000  1
  Co  Co3  1  0.16714200  0.43285800  0.55000000  1
  Co  Co3  1  0.16714200  0.43285800  0.75000000  1
  Co  Co3  1  0.16714200  0.43285800  0.95000000  1
  Co  Co3  1  0.16714200  0.63285800  0.15000000  1
  Co  Co3  1  0.16714200  0.63285800  0.35000000  1
  Co  Co3  1  0.16714200  0.63285800  0.55000000  1
  Co  Co3  1  0.16714200  0.63285800  0.75000000  1
  Co  Co3  1  0.16714200  0.63285800  0.95000000  1
  Co  Co3  1  0.16714200  0.83285800  0.15000000  1
  Co  Co3  1  0.16714200  0.83285800  0.35000000  1
  Co  Co3  1  0.16714200  0.83285800  0.55000000  1
  Co  Co3  1  0.16714200  0.83285800  0.75000000  1
  Co  Co3  1  0.16714200  0.83285800  0.95000000  1
  Co  Co3  1  0.36714200  0.03285800  0.15000000  1
  Co  Co3  1  0.36714200  0.03285800  0.35000000  1
  Co  Co3  1  0.36714200  0.03285800  0.55000000  1
  Co  Co3  1  0.36714200  0.03285800  0.75000000  1
  Co  Co3  1  0.36714200  0.03285800  0.95000000  1
  Co  Co3  1  0.36714200  0.23285800  0.15000000  1
  Co  Co3  1  0.36714200  0.23285800  0.35000000  1
  Co  Co3  1  0.36714200  0.23285800  0.55000000  1
  Co  Co3  1  0.36714200  0.23285800  0.75000000  1
  Co  Co3  1  0.36714200  0.23285800  0.95000000  1
  Co  Co3  1  0.36714200  0.43285800  0.15000000  1
  Co  Co3  1  0.36714200  0.43285800  0.35000000  1
  Co  Co3  1  0.36714200  0.43285800  0.55000000  1
  Co  Co3  1  0.36714200  0.43285800  0.75000000  1
  Co  Co3  1  0.36714200  0.43285800  0.95000000  1
  Co  Co3  1  0.36714200  0.63285800  0.15000000  1
  Co  Co3  1  0.36714200  0.63285800  0.35000000  1
  Co  Co3  1  0.36714200  0.63285800  0.55000000  1
  Co  Co3  1  0.36714200  0.63285800  0.75000000  1
  Co  Co3  1  0.36714200  0.63285800  0.95000000  1
  Co  Co3  1  0.36714200  0.83285800  0.15000000  1
  Co  Co3  1  0.36714200  0.83285800  0.35000000  1
  Co  Co3  1  0.36714200  0.83285800  0.55000000  1
  Co  Co3  1  0.36714200  0.83285800  0.75000000  1
  Co  Co3  1  0.36714200  0.83285800  0.95000000  1
  Co  Co3  1  0.56714200  0.03285800  0.15000000  1
  Co  Co3  1  0.56714200  0.03285800  0.35000000  1
  Co  Co3  1  0.56714200  0.03285800  0.55000000  1
  Co  Co3  1  0.56714200  0.03285800  0.75000000  1
  Co  Co3  1  0.56714200  0.03285800  0.95000000  1
  Co  Co3  1  0.56714200  0.23285800  0.15000000  1
  Co  Co3  1  0.56714200  0.23285800  0.35000000  1
  Co  Co3  1  0.56714200  0.23285800  0.55000000  1
  Co  Co3  1  0.56714200  0.23285800  0.75000000  1
  Co  Co3  1  0.56714200  0.23285800  0.95000000  1
  Co  Co3  1  0.56714200  0.43285800  0.15000000  1
  Co  Co3  1  0.56714200  0.43285800  0.35000000  1
  Co  Co3  1  0.56714200  0.43285800  0.55000000  1
  Co  Co3  1  0.56714200  0.43285800  0.75000000  1
  Co  Co3  1  0.56714200  0.43285800  0.95000000  1
  Co  Co3  1  0.56714200  0.63285800  0.15000000  1
  Co  Co3  1  0.56714200  0.63285800  0.35000000  1
  Co  Co3  1  0.56714200  0.63285800  0.55000000  1
  Co  Co3  1  0.56714200  0.63285800  0.75000000  1
  Co  Co3  1  0.56714200  0.63285800  0.95000000  1
  Co  Co3  1  0.56714200  0.83285800  0.15000000  1
  Co  Co3  1  0.56714200  0.83285800  0.35000000  1
  Co  Co3  1  0.56714200  0.83285800  0.55000000  1
  Co  Co3  1  0.56714200  0.83285800  0.75000000  1
  Co  Co3  1  0.56714200  0.83285800  0.95000000  1
  Co  Co3  1  0.76714200  0.03285800  0.15000000  1
  Co  Co3  1  0.76714200  0.03285800  0.35000000  1
  Co  Co3  1  0.76714200  0.03285800  0.55000000  1
  Co  Co3  1  0.76714200  0.03285800  0.75000000  1
  Co  Co3  1  0.76714200  0.03285800  0.95000000  1
  Co  Co3  1  0.76714200  0.23285800  0.15000000  1
  Co  Co3  1  0.76714200  0.23285800  0.35000000  1
  Co  Co3  1  0.76714200  0.23285800  0.55000000  1
  Co  Co3  1  0.76714200  0.23285800  0.75000000  1
  Co  Co3  1  0.76714200  0.23285800  0.95000000  1
  Co  Co3  1  0.76714200  0.43285800  0.15000000  1
  Co  Co3  1  0.76714200  0.43285800  0.35000000  1
  Co  Co3  1  0.76714200  0.43285800  0.55000000  1
  Co  Co3  1  0.76714200  0.43285800  0.75000000  1
  Co  Co3  1  0.76714200  0.43285800  0.95000000  1
  Co  Co3  1  0.76714200  0.63285800  0.15000000  1
  Co  Co3  1  0.76714200  0.63285800  0.35000000  1
  Co  Co3  1  0.76714200  0.63285800  0.55000000  1
  Co  Co3  1  0.76714200  0.63285800  0.75000000  1
  Co  Co3  1  0.76714200  0.63285800  0.95000000  1
  Co  Co3  1  0.76714200  0.83285800  0.15000000  1
  Co  Co3  1  0.76714200  0.83285800  0.35000000  1
  Co  Co3  1  0.76714200  0.83285800  0.55000000  1
  Co  Co3  1  0.76714200  0.83285800  0.75000000  1
  Co  Co3  1  0.76714200  0.83285800  0.95000000  1
  Co  Co3  1  0.96714200  0.03285800  0.15000000  1
  Co  Co3  1  0.96714200  0.03285800  0.35000000  1
  Co  Co3  1  0.96714200  0.03285800  0.55000000  1
  Co  Co3  1  0.96714200  0.03285800  0.75000000  1
  Co  Co3  1  0.96714200  0.03285800  0.95000000  1
  Co  Co3  1  0.96714200  0.23285800  0.15000000  1
  Co  Co3  1  0.96714200  0.23285800  0.35000000  1
  Co  Co3  1  0.96714200  0.23285800  0.55000000  1
  Co  Co3  1  0.96714200  0.23285800  0.75000000  1
  Co  Co3  1  0.96714200  0.23285800  0.95000000  1
  Co  Co3  1  0.96714200  0.43285800  0.15000000  1
  Co  Co3  1  0.96714200  0.43285800  0.35000000  1
  Co  Co3  1  0.96714200  0.43285800  0.55000000  1
  Co  Co3  1  0.96714200  0.43285800  0.75000000  1
  Co  Co3  1  0.96714200  0.43285800  0.95000000  1
  Co  Co3  1  0.96714200  0.63285800  0.15000000  1
  Co  Co3  1  0.96714200  0.63285800  0.35000000  1
  Co  Co3  1  0.96714200  0.63285800  0.55000000  1
  Co  Co3  1  0.96714200  0.63285800  0.75000000  1
  Co  Co3  1  0.96714200  0.63285800  0.95000000  1
  Co  Co3  1  0.96714200  0.83285800  0.15000000  1
  Co  Co3  1  0.96714200  0.83285800  0.35000000  1
  Co  Co3  1  0.96714200  0.83285800  0.55000000  1
  Co  Co3  1  0.96714200  0.83285800  0.75000000  1
  Co  Co3  1  0.96714200  0.83285800  0.95000000  1
  Co  Co3  1  0.13428400  0.16714200  0.05000000  1
  Co  Co3  1  0.13428400  0.16714200  0.25000000  1
  Co  Co3  1  0.13428400  0.16714200  0.45000000  1
  Co  Co3  1  0.13428400  0.16714200  0.65000000  1
  Co  Co3  1  0.13428400  0.16714200  0.85000000  1
  Co  Co3  1  0.13428400  0.36714200  0.05000000  1
  Co  Co3  1  0.13428400  0.36714200  0.25000000  1
  Co  Co3  1  0.13428400  0.36714200  0.45000000  1
  Co  Co3  1  0.13428400  0.36714200  0.65000000  1
  Co  Co3  1  0.13428400  0.36714200  0.85000000  1
  Co  Co3  1  0.13428400  0.56714200  0.05000000  1
  Co  Co3  1  0.13428400  0.56714200  0.25000000  1
  Co  Co3  1  0.13428400  0.56714200  0.45000000  1
  Co  Co3  1  0.13428400  0.56714200  0.65000000  1
  Co  Co3  1  0.13428400  0.56714200  0.85000000  1
  Co  Co3  1  0.13428400  0.76714200  0.05000000  1
  Co  Co3  1  0.13428400  0.76714200  0.25000000  1
  Co  Co3  1  0.13428400  0.76714200  0.45000000  1
  Co  Co3  1  0.13428400  0.76714200  0.65000000  1
  Co  Co3  1  0.13428400  0.76714200  0.85000000  1
  Co  Co3  1  0.13428400  0.96714200  0.05000000  1
  Co  Co3  1  0.13428400  0.96714200  0.25000000  1
  Co  Co3  1  0.13428400  0.96714200  0.45000000  1
  Co  Co3  1  0.13428400  0.96714200  0.65000000  1
  Co  Co3  1  0.13428400  0.96714200  0.85000000  1
  Co  Co3  1  0.33428400  0.16714200  0.05000000  1
  Co  Co3  1  0.33428400  0.16714200  0.25000000  1
  Co  Co3  1  0.33428400  0.16714200  0.45000000  1
  Co  Co3  1  0.33428400  0.16714200  0.65000000  1
  Co  Co3  1  0.33428400  0.16714200  0.85000000  1
  Co  Co3  1  0.33428400  0.36714200  0.05000000  1
  Co  Co3  1  0.33428400  0.36714200  0.25000000  1
  Co  Co3  1  0.33428400  0.36714200  0.45000000  1
  Co  Co3  1  0.33428400  0.36714200  0.65000000  1
  Co  Co3  1  0.33428400  0.36714200  0.85000000  1
  Co  Co3  1  0.33428400  0.56714200  0.05000000  1
  Co  Co3  1  0.33428400  0.56714200  0.25000000  1
  Co  Co3  1  0.33428400  0.56714200  0.45000000  1
  Co  Co3  1  0.33428400  0.56714200  0.65000000  1
  Co  Co3  1  0.33428400  0.56714200  0.85000000  1
  Co  Co3  1  0.33428400  0.76714200  0.05000000  1
  Co  Co3  1  0.33428400  0.76714200  0.25000000  1
  Co  Co3  1  0.33428400  0.76714200  0.45000000  1
  Co  Co3  1  0.33428400  0.76714200  0.65000000  1
  Co  Co3  1  0.33428400  0.76714200  0.85000000  1
  Co  Co3  1  0.33428400  0.96714200  0.05000000  1
  Co  Co3  1  0.33428400  0.96714200  0.25000000  1
  Co  Co3  1  0.33428400  0.96714200  0.45000000  1
  Co  Co3  1  0.33428400  0.96714200  0.65000000  1
  Co  Co3  1  0.33428400  0.96714200  0.85000000  1
  Co  Co3  1  0.53428400  0.16714200  0.05000000  1
  Co  Co3  1  0.53428400  0.16714200  0.25000000  1
  Co  Co3  1  0.53428400  0.16714200  0.45000000  1
  Co  Co3  1  0.53428400  0.16714200  0.65000000  1
  Co  Co3  1  0.53428400  0.16714200  0.85000000  1
  Co  Co3  1  0.53428400  0.36714200  0.05000000  1
  Co  Co3  1  0.53428400  0.36714200  0.25000000  1
  Co  Co3  1  0.53428400  0.36714200  0.45000000  1
  Co  Co3  1  0.53428400  0.36714200  0.65000000  1
  Co  Co3  1  0.53428400  0.36714200  0.85000000  1
  Co  Co3  1  0.53428400  0.56714200  0.05000000  1
  Co  Co3  1  0.53428400  0.56714200  0.25000000  1
  Co  Co3  1  0.53428400  0.56714200  0.45000000  1
  Co  Co3  1  0.53428400  0.56714200  0.65000000  1
  Co  Co3  1  0.53428400  0.56714200  0.85000000  1
  Co  Co3  1  0.53428400  0.76714200  0.05000000  1
  Co  Co3  1  0.53428400  0.76714200  0.25000000  1
  Co  Co3  1  0.53428400  0.76714200  0.45000000  1
  Co  Co3  1  0.53428400  0.76714200  0.65000000  1
  Co  Co3  1  0.53428400  0.76714200  0.85000000  1
  Co  Co3  1  0.53428400  0.96714200  0.05000000  1
  Co  Co3  1  0.53428400  0.96714200  0.25000000  1
  Co  Co3  1  0.53428400  0.96714200  0.45000000  1
  Co  Co3  1  0.53428400  0.96714200  0.65000000  1
  Co  Co3  1  0.53428400  0.96714200  0.85000000  1
  Co  Co3  1  0.73428400  0.16714200  0.05000000  1
  Co  Co3  1  0.73428400  0.16714200  0.25000000  1
  Co  Co3  1  0.73428400  0.16714200  0.45000000  1
  Co  Co3  1  0.73428400  0.16714200  0.65000000  1
  Co  Co3  1  0.73428400  0.16714200  0.85000000  1
  Co  Co3  1  0.73428400  0.36714200  0.05000000  1
  Co  Co3  1  0.73428400  0.36714200  0.25000000  1
  Co  Co3  1  0.73428400  0.36714200  0.45000000  1
  Co  Co3  1  0.73428400  0.36714200  0.65000000  1
  Co  Co3  1  0.73428400  0.36714200  0.85000000  1
  Co  Co3  1  0.73428400  0.56714200  0.05000000  1
  Co  Co3  1  0.73428400  0.56714200  0.25000000  1
  Co  Co3  1  0.73428400  0.56714200  0.45000000  1
  Co  Co3  1  0.73428400  0.56714200  0.65000000  1
  Co  Co3  1  0.73428400  0.56714200  0.85000000  1
  Co  Co3  1  0.73428400  0.76714200  0.05000000  1
  Co  Co3  1  0.73428400  0.76714200  0.25000000  1
  Co  Co3  1  0.73428400  0.76714200  0.45000000  1
  Co  Co3  1  0.73428400  0.76714200  0.65000000  1
  Co  Co3  1  0.73428400  0.76714200  0.85000000  1
  Co  Co3  1  0.73428400  0.96714200  0.05000000  1
  Co  Co3  1  0.73428400  0.96714200  0.25000000  1
  Co  Co3  1  0.73428400  0.96714200  0.45000000  1
  Co  Co3  1  0.73428400  0.96714200  0.65000000  1
  Co  Co3  1  0.73428400  0.96714200  0.85000000  1
  Co  Co3  1  0.93428400  0.16714200  0.05000000  1
  Co  Co3  1  0.93428400  0.16714200  0.25000000  1
  Co  Co3  1  0.93428400  0.16714200  0.45000000  1
  Co  Co3  1  0.93428400  0.16714200  0.65000000  1
  Co  Co3  1  0.93428400  0.16714200  0.85000000  1
  Co  Co3  1  0.93428400  0.36714200  0.05000000  1
  Co  Co3  1  0.93428400  0.36714200  0.25000000  1
  Co  Co3  1  0.93428400  0.36714200  0.45000000  1
  Co  Co3  1  0.93428400  0.36714200  0.65000000  1
  Co  Co3  1  0.93428400  0.36714200  0.85000000  1
  Co  Co3  1  0.93428400  0.56714200  0.05000000  1
  Co  Co3  1  0.93428400  0.56714200  0.25000000  1
  Co  Co3  1  0.93428400  0.56714200  0.45000000  1
  Co  Co3  1  0.93428400  0.56714200  0.65000000  1
  Co  Co3  1  0.93428400  0.56714200  0.85000000  1
  Co  Co3  1  0.93428400  0.76714200  0.05000000  1
  Co  Co3  1  0.93428400  0.76714200  0.25000000  1
  Co  Co3  1  0.93428400  0.76714200  0.45000000  1
  Co  Co3  1  0.93428400  0.76714200  0.65000000  1
  Co  Co3  1  0.93428400  0.76714200  0.85000000  1
  Co  Co3  1  0.93428400  0.96714200  0.05000000  1
  Co  Co3  1  0.93428400  0.96714200  0.25000000  1
  Co  Co3  1  0.93428400  0.96714200  0.45000000  1
  Co  Co3  1  0.93428400  0.96714200  0.65000000  1
  Co  Co3  1  0.93428400  0.96714200  0.85000000  1
  Co  Co3  1  0.16714200  0.13428400  0.15000000  1
  Co  Co3  1  0.16714200  0.13428400  0.35000000  1
  Co  Co3  1  0.16714200  0.13428400  0.55000000  1
  Co  Co3  1  0.16714200  0.13428400  0.75000000  1
  Co  Co3  1  0.16714200  0.13428400  0.95000000  1
  Co  Co3  1  0.16714200  0.33428400  0.15000000  1
  Co  Co3  1  0.16714200  0.33428400  0.35000000  1
  Co  Co3  1  0.16714200  0.33428400  0.55000000  1
  Co  Co3  1  0.16714200  0.33428400  0.75000000  1
  Co  Co3  1  0.16714200  0.33428400  0.95000000  1
  Co  Co3  1  0.16714200  0.53428400  0.15000000  1
  Co  Co3  1  0.16714200  0.53428400  0.35000000  1
  Co  Co3  1  0.16714200  0.53428400  0.55000000  1
  Co  Co3  1  0.16714200  0.53428400  0.75000000  1
  Co  Co3  1  0.16714200  0.53428400  0.95000000  1
  Co  Co3  1  0.16714200  0.73428400  0.15000000  1
  Co  Co3  1  0.16714200  0.73428400  0.35000000  1
  Co  Co3  1  0.16714200  0.73428400  0.55000000  1
  Co  Co3  1  0.16714200  0.73428400  0.75000000  1
  Co  Co3  1  0.16714200  0.73428400  0.95000000  1
  Co  Co3  1  0.16714200  0.93428400  0.15000000  1
  Co  Co3  1  0.16714200  0.93428400  0.35000000  1
  Co  Co3  1  0.16714200  0.93428400  0.55000000  1
  Co  Co3  1  0.16714200  0.93428400  0.75000000  1
  Co  Co3  1  0.16714200  0.93428400  0.95000000  1
  Co  Co3  1  0.36714200  0.13428400  0.15000000  1
  Co  Co3  1  0.36714200  0.13428400  0.35000000  1
  Co  Co3  1  0.36714200  0.13428400  0.55000000  1
  Co  Co3  1  0.36714200  0.13428400  0.75000000  1
  Co  Co3  1  0.36714200  0.13428400  0.95000000  1
  Co  Co3  1  0.36714200  0.33428400  0.15000000  1
  Co  Co3  1  0.36714200  0.33428400  0.35000000  1
  Co  Co3  1  0.36714200  0.33428400  0.55000000  1
  Co  Co3  1  0.36714200  0.33428400  0.75000000  1
  Co  Co3  1  0.36714200  0.33428400  0.95000000  1
  Co  Co3  1  0.36714200  0.53428400  0.15000000  1
  Co  Co3  1  0.36714200  0.53428400  0.35000000  1
  Co  Co3  1  0.36714200  0.53428400  0.55000000  1
  Co  Co3  1  0.36714200  0.53428400  0.75000000  1
  Co  Co3  1  0.36714200  0.53428400  0.95000000  1
  Co  Co3  1  0.36714200  0.73428400  0.15000000  1
  Co  Co3  1  0.36714200  0.73428400  0.35000000  1
  Co  Co3  1  0.36714200  0.73428400  0.55000000  1
  Co  Co3  1  0.36714200  0.73428400  0.75000000  1
  Co  Co3  1  0.36714200  0.73428400  0.95000000  1
  Co  Co3  1  0.36714200  0.93428400  0.15000000  1
  Co  Co3  1  0.36714200  0.93428400  0.35000000  1
  Co  Co3  1  0.36714200  0.93428400  0.55000000  1
  Co  Co3  1  0.36714200  0.93428400  0.75000000  1
  Co  Co3  1  0.36714200  0.93428400  0.95000000  1
  Co  Co3  1  0.56714200  0.13428400  0.15000000  1
  Co  Co3  1  0.56714200  0.13428400  0.35000000  1
  Co  Co3  1  0.56714200  0.13428400  0.55000000  1
  Co  Co3  1  0.56714200  0.13428400  0.75000000  1
  Co  Co3  1  0.56714200  0.13428400  0.95000000  1
  Co  Co3  1  0.56714200  0.33428400  0.15000000  1
  Co  Co3  1  0.56714200  0.33428400  0.35000000  1
  Co  Co3  1  0.56714200  0.33428400  0.55000000  1
  Co  Co3  1  0.56714200  0.33428400  0.75000000  1
  Co  Co3  1  0.56714200  0.33428400  0.95000000  1
  Co  Co3  1  0.56714200  0.53428400  0.15000000  1
  Co  Co3  1  0.56714200  0.53428400  0.35000000  1
  Co  Co3  1  0.56714200  0.53428400  0.55000000  1
  Co  Co3  1  0.56714200  0.53428400  0.75000000  1
  Co  Co3  1  0.56714200  0.53428400  0.95000000  1
  Co  Co3  1  0.56714200  0.73428400  0.15000000  1
  Co  Co3  1  0.56714200  0.73428400  0.35000000  1
  Co  Co3  1  0.56714200  0.73428400  0.55000000  1
  Co  Co3  1  0.56714200  0.73428400  0.75000000  1
  Co  Co3  1  0.56714200  0.73428400  0.95000000  1
  Co  Co3  1  0.56714200  0.93428400  0.15000000  1
  Co  Co3  1  0.56714200  0.93428400  0.35000000  1
  Co  Co3  1  0.56714200  0.93428400  0.55000000  1
  Co  Co3  1  0.56714200  0.93428400  0.75000000  1
  Co  Co3  1  0.56714200  0.93428400  0.95000000  1
  Co  Co3  1  0.76714200  0.13428400  0.15000000  1
  Co  Co3  1  0.76714200  0.13428400  0.35000000  1
  Co  Co3  1  0.76714200  0.13428400  0.55000000  1
  Co  Co3  1  0.76714200  0.13428400  0.75000000  1
  Co  Co3  1  0.76714200  0.13428400  0.95000000  1
  Co  Co3  1  0.76714200  0.33428400  0.15000000  1
  Co  Co3  1  0.76714200  0.33428400  0.35000000  1
  Co  Co3  1  0.76714200  0.33428400  0.55000000  1
  Co  Co3  1  0.76714200  0.33428400  0.75000000  1
  Co  Co3  1  0.76714200  0.33428400  0.95000000  1
  Co  Co3  1  0.76714200  0.53428400  0.15000000  1
  Co  Co3  1  0.76714200  0.53428400  0.35000000  1
  Co  Co3  1  0.76714200  0.53428400  0.55000000  1
  Co  Co3  1  0.76714200  0.53428400  0.75000000  1
  Co  Co3  1  0.76714200  0.53428400  0.95000000  1
  Co  Co3  1  0.76714200  0.73428400  0.15000000  1
  Co  Co3  1  0.76714200  0.73428400  0.35000000  1
  Co  Co3  1  0.76714200  0.73428400  0.55000000  1
  Co  Co3  1  0.76714200  0.73428400  0.75000000  1
  Co  Co3  1  0.76714200  0.73428400  0.95000000  1
  Co  Co3  1  0.76714200  0.93428400  0.15000000  1
  Co  Co3  1  0.76714200  0.93428400  0.35000000  1
  Co  Co3  1  0.76714200  0.93428400  0.55000000  1
  Co  Co3  1  0.76714200  0.93428400  0.75000000  1
  Co  Co3  1  0.76714200  0.93428400  0.95000000  1
  Co  Co3  1  0.96714200  0.13428400  0.15000000  1
  Co  Co3  1  0.96714200  0.13428400  0.35000000  1
  Co  Co3  1  0.96714200  0.13428400  0.55000000  1
  Co  Co3  1  0.96714200  0.13428400  0.75000000  1
  Co  Co3  1  0.96714200  0.13428400  0.95000000  1
  Co  Co3  1  0.96714200  0.33428400  0.15000000  1
  Co  Co3  1  0.96714200  0.33428400  0.35000000  1
  Co  Co3  1  0.96714200  0.33428400  0.55000000  1
  Co  Co3  1  0.96714200  0.33428400  0.75000000  1
  Co  Co3  1  0.96714200  0.33428400  0.95000000  1
  Co  Co3  1  0.96714200  0.53428400  0.15000000  1
  Co  Co3  1  0.96714200  0.53428400  0.35000000  1
  Co  Co3  1  0.96714200  0.53428400  0.55000000  1
  Co  Co3  1  0.96714200  0.53428400  0.75000000  1
  Co  Co3  1  0.96714200  0.53428400  0.95000000  1
  Co  Co3  1  0.96714200  0.73428400  0.15000000  1
  Co  Co3  1  0.96714200  0.73428400  0.35000000  1
  Co  Co3  1  0.96714200  0.73428400  0.55000000  1
  Co  Co3  1  0.96714200  0.73428400  0.75000000  1
  Co  Co3  1  0.96714200  0.73428400  0.95000000  1
  Co  Co3  1  0.96714200  0.93428400  0.15000000  1
  Co  Co3  1  0.96714200  0.93428400  0.35000000  1
  Co  Co3  1  0.96714200  0.93428400  0.55000000  1
  Co  Co3  1  0.96714200  0.93428400  0.75000000  1
  Co  Co3  1  0.96714200  0.93428400  0.95000000  1
  Co  Co3  1  0.03285800  0.16714200  0.05000000  1
  Co  Co3  1  0.03285800  0.16714200  0.25000000  1
  Co  Co3  1  0.03285800  0.16714200  0.45000000  1
  Co  Co3  1  0.03285800  0.16714200  0.65000000  1
  Co  Co3  1  0.03285800  0.16714200  0.85000000  1
  Co  Co3  1  0.03285800  0.36714200  0.05000000  1
  Co  Co3  1  0.03285800  0.36714200  0.25000000  1
  Co  Co3  1  0.03285800  0.36714200  0.45000000  1
  Co  Co3  1  0.03285800  0.36714200  0.65000000  1
  Co  Co3  1  0.03285800  0.36714200  0.85000000  1
  Co  Co3  1  0.03285800  0.56714200  0.05000000  1
  Co  Co3  1  0.03285800  0.56714200  0.25000000  1
  Co  Co3  1  0.03285800  0.56714200  0.45000000  1
  Co  Co3  1  0.03285800  0.56714200  0.65000000  1
  Co  Co3  1  0.03285800  0.56714200  0.85000000  1
  Co  Co3  1  0.03285800  0.76714200  0.05000000  1
  Co  Co3  1  0.03285800  0.76714200  0.25000000  1
  Co  Co3  1  0.03285800  0.76714200  0.45000000  1
  Co  Co3  1  0.03285800  0.76714200  0.65000000  1
  Co  Co3  1  0.03285800  0.76714200  0.85000000  1
  Co  Co3  1  0.03285800  0.96714200  0.05000000  1
  Co  Co3  1  0.03285800  0.96714200  0.25000000  1
  Co  Co3  1  0.03285800  0.96714200  0.45000000  1
  Co  Co3  1  0.03285800  0.96714200  0.65000000  1
  Co  Co3  1  0.03285800  0.96714200  0.85000000  1
  Co  Co3  1  0.23285800  0.16714200  0.05000000  1
  Co  Co3  1  0.23285800  0.16714200  0.25000000  1
  Co  Co3  1  0.23285800  0.16714200  0.45000000  1
  Co  Co3  1  0.23285800  0.16714200  0.65000000  1
  Co  Co3  1  0.23285800  0.16714200  0.85000000  1
  Co  Co3  1  0.23285800  0.36714200  0.05000000  1
  Co  Co3  1  0.23285800  0.36714200  0.25000000  1
  Co  Co3  1  0.23285800  0.36714200  0.45000000  1
  Co  Co3  1  0.23285800  0.36714200  0.65000000  1
  Co  Co3  1  0.23285800  0.36714200  0.85000000  1
  Co  Co3  1  0.23285800  0.56714200  0.05000000  1
  Co  Co3  1  0.23285800  0.56714200  0.25000000  1
  Co  Co3  1  0.23285800  0.56714200  0.45000000  1
  Co  Co3  1  0.23285800  0.56714200  0.65000000  1
  Co  Co3  1  0.23285800  0.56714200  0.85000000  1
  Co  Co3  1  0.23285800  0.76714200  0.05000000  1
  Co  Co3  1  0.23285800  0.76714200  0.25000000  1
  Co  Co3  1  0.23285800  0.76714200  0.45000000  1
  Co  Co3  1  0.23285800  0.76714200  0.65000000  1
  Co  Co3  1  0.23285800  0.76714200  0.85000000  1
  Co  Co3  1  0.23285800  0.96714200  0.05000000  1
  Co  Co3  1  0.23285800  0.96714200  0.25000000  1
  Co  Co3  1  0.23285800  0.96714200  0.45000000  1
  Co  Co3  1  0.23285800  0.96714200  0.65000000  1
  Co  Co3  1  0.23285800  0.96714200  0.85000000  1
  Co  Co3  1  0.43285800  0.16714200  0.05000000  1
  Co  Co3  1  0.43285800  0.16714200  0.25000000  1
  Co  Co3  1  0.43285800  0.16714200  0.45000000  1
  Co  Co3  1  0.43285800  0.16714200  0.65000000  1
  Co  Co3  1  0.43285800  0.16714200  0.85000000  1
  Co  Co3  1  0.43285800  0.36714200  0.05000000  1
  Co  Co3  1  0.43285800  0.36714200  0.25000000  1
  Co  Co3  1  0.43285800  0.36714200  0.45000000  1
  Co  Co3  1  0.43285800  0.36714200  0.65000000  1
  Co  Co3  1  0.43285800  0.36714200  0.85000000  1
  Co  Co3  1  0.43285800  0.56714200  0.05000000  1
  Co  Co3  1  0.43285800  0.56714200  0.25000000  1
  Co  Co3  1  0.43285800  0.56714200  0.45000000  1
  Co  Co3  1  0.43285800  0.56714200  0.65000000  1
  Co  Co3  1  0.43285800  0.56714200  0.85000000  1
  Co  Co3  1  0.43285800  0.76714200  0.05000000  1
  Co  Co3  1  0.43285800  0.76714200  0.25000000  1
  Co  Co3  1  0.43285800  0.76714200  0.45000000  1
  Co  Co3  1  0.43285800  0.76714200  0.65000000  1
  Co  Co3  1  0.43285800  0.76714200  0.85000000  1
  Co  Co3  1  0.43285800  0.96714200  0.05000000  1
  Co  Co3  1  0.43285800  0.96714200  0.25000000  1
  Co  Co3  1  0.43285800  0.96714200  0.45000000  1
  Co  Co3  1  0.43285800  0.96714200  0.65000000  1
  Co  Co3  1  0.43285800  0.96714200  0.85000000  1
  Co  Co3  1  0.63285800  0.16714200  0.05000000  1
  Co  Co3  1  0.63285800  0.16714200  0.25000000  1
  Co  Co3  1  0.63285800  0.16714200  0.45000000  1
  Co  Co3  1  0.63285800  0.16714200  0.65000000  1
  Co  Co3  1  0.63285800  0.16714200  0.85000000  1
  Co  Co3  1  0.63285800  0.36714200  0.05000000  1
  Co  Co3  1  0.63285800  0.36714200  0.25000000  1
  Co  Co3  1  0.63285800  0.36714200  0.45000000  1
  Co  Co3  1  0.63285800  0.36714200  0.65000000  1
  Co  Co3  1  0.63285800  0.36714200  0.85000000  1
  Co  Co3  1  0.63285800  0.56714200  0.05000000  1
  Co  Co3  1  0.63285800  0.56714200  0.25000000  1
  Co  Co3  1  0.63285800  0.56714200  0.45000000  1
  Co  Co3  1  0.63285800  0.56714200  0.65000000  1
  Co  Co3  1  0.63285800  0.56714200  0.85000000  1
  Co  Co3  1  0.63285800  0.76714200  0.05000000  1
  Co  Co3  1  0.63285800  0.76714200  0.25000000  1
  Co  Co3  1  0.63285800  0.76714200  0.45000000  1
  Co  Co3  1  0.63285800  0.76714200  0.65000000  1
  Co  Co3  1  0.63285800  0.76714200  0.85000000  1
  Co  Co3  1  0.63285800  0.96714200  0.05000000  1
  Co  Co3  1  0.63285800  0.96714200  0.25000000  1
  Co  Co3  1  0.63285800  0.96714200  0.45000000  1
  Co  Co3  1  0.63285800  0.96714200  0.65000000  1
  Co  Co3  1  0.63285800  0.96714200  0.85000000  1
  Co  Co3  1  0.83285800  0.16714200  0.05000000  1
  Co  Co3  1  0.83285800  0.16714200  0.25000000  1
  Co  Co3  1  0.83285800  0.16714200  0.45000000  1
  Co  Co3  1  0.83285800  0.16714200  0.65000000  1
  Co  Co3  1  0.83285800  0.16714200  0.85000000  1
  Co  Co3  1  0.83285800  0.36714200  0.05000000  1
  Co  Co3  1  0.83285800  0.36714200  0.25000000  1
  Co  Co3  1  0.83285800  0.36714200  0.45000000  1
  Co  Co3  1  0.83285800  0.36714200  0.65000000  1
  Co  Co3  1  0.83285800  0.36714200  0.85000000  1
  Co  Co3  1  0.83285800  0.56714200  0.05000000  1
  Co  Co3  1  0.83285800  0.56714200  0.25000000  1
  Co  Co3  1  0.83285800  0.56714200  0.45000000  1
  Co  Co3  1  0.83285800  0.56714200  0.65000000  1
  Co  Co3  1  0.83285800  0.56714200  0.85000000  1
  Co  Co3  1  0.83285800  0.76714200  0.05000000  1
  Co  Co3  1  0.83285800  0.76714200  0.25000000  1
  Co  Co3  1  0.83285800  0.76714200  0.45000000  1
  Co  Co3  1  0.83285800  0.76714200  0.65000000  1
  Co  Co3  1  0.83285800  0.76714200  0.85000000  1
  Co  Co3  1  0.83285800  0.96714200  0.05000000  1
  Co  Co3  1  0.83285800  0.96714200  0.25000000  1
  Co  Co3  1  0.83285800  0.96714200  0.45000000  1
  Co  Co3  1  0.83285800  0.96714200  0.65000000  1
  Co  Co3  1  0.83285800  0.96714200  0.85000000  1
  Co  Co3  1  0.06571600  0.03285800  0.15000000  1
  Co  Co3  1  0.06571600  0.03285800  0.35000000  1
  Co  Co3  1  0.06571600  0.03285800  0.55000000  1
  Co  Co3  1  0.06571600  0.03285800  0.75000000  1
  Co  Co3  1  0.06571600  0.03285800  0.95000000  1
  Co  Co3  1  0.06571600  0.23285800  0.15000000  1
  Co  Co3  1  0.06571600  0.23285800  0.35000000  1
  Co  Co3  1  0.06571600  0.23285800  0.55000000  1
  Co  Co3  1  0.06571600  0.23285800  0.75000000  1
  Co  Co3  1  0.06571600  0.23285800  0.95000000  1
  Co  Co3  1  0.06571600  0.43285800  0.15000000  1
  Co  Co3  1  0.06571600  0.43285800  0.35000000  1
  Co  Co3  1  0.06571600  0.43285800  0.55000000  1
  Co  Co3  1  0.06571600  0.43285800  0.75000000  1
  Co  Co3  1  0.06571600  0.43285800  0.95000000  1
  Co  Co3  1  0.06571600  0.63285800  0.15000000  1
  Co  Co3  1  0.06571600  0.63285800  0.35000000  1
  Co  Co3  1  0.06571600  0.63285800  0.55000000  1
  Co  Co3  1  0.06571600  0.63285800  0.75000000  1
  Co  Co3  1  0.06571600  0.63285800  0.95000000  1
  Co  Co3  1  0.06571600  0.83285800  0.15000000  1
  Co  Co3  1  0.06571600  0.83285800  0.35000000  1
  Co  Co3  1  0.06571600  0.83285800  0.55000000  1
  Co  Co3  1  0.06571600  0.83285800  0.75000000  1
  Co  Co3  1  0.06571600  0.83285800  0.95000000  1
  Co  Co3  1  0.26571600  0.03285800  0.15000000  1
  Co  Co3  1  0.26571600  0.03285800  0.35000000  1
  Co  Co3  1  0.26571600  0.03285800  0.55000000  1
  Co  Co3  1  0.26571600  0.03285800  0.75000000  1
  Co  Co3  1  0.26571600  0.03285800  0.95000000  1
  Co  Co3  1  0.26571600  0.23285800  0.15000000  1
  Co  Co3  1  0.26571600  0.23285800  0.35000000  1
  Co  Co3  1  0.26571600  0.23285800  0.55000000  1
  Co  Co3  1  0.26571600  0.23285800  0.75000000  1
  Co  Co3  1  0.26571600  0.23285800  0.95000000  1
  Co  Co3  1  0.26571600  0.43285800  0.15000000  1
  Co  Co3  1  0.26571600  0.43285800  0.35000000  1
  Co  Co3  1  0.26571600  0.43285800  0.55000000  1
  Co  Co3  1  0.26571600  0.43285800  0.75000000  1
  Co  Co3  1  0.26571600  0.43285800  0.95000000  1
  Co  Co3  1  0.26571600  0.63285800  0.15000000  1
  Co  Co3  1  0.26571600  0.63285800  0.35000000  1
  Co  Co3  1  0.26571600  0.63285800  0.55000000  1
  Co  Co3  1  0.26571600  0.63285800  0.75000000  1
  Co  Co3  1  0.26571600  0.63285800  0.95000000  1
  Co  Co3  1  0.26571600  0.83285800  0.15000000  1
  Co  Co3  1  0.26571600  0.83285800  0.35000000  1
  Co  Co3  1  0.26571600  0.83285800  0.55000000  1
  Co  Co3  1  0.26571600  0.83285800  0.75000000  1
  Co  Co3  1  0.26571600  0.83285800  0.95000000  1
  Co  Co3  1  0.46571600  0.03285800  0.15000000  1
  Co  Co3  1  0.46571600  0.03285800  0.35000000  1
  Co  Co3  1  0.46571600  0.03285800  0.55000000  1
  Co  Co3  1  0.46571600  0.03285800  0.75000000  1
  Co  Co3  1  0.46571600  0.03285800  0.95000000  1
  Co  Co3  1  0.46571600  0.23285800  0.15000000  1
  Co  Co3  1  0.46571600  0.23285800  0.35000000  1
  Co  Co3  1  0.46571600  0.23285800  0.55000000  1
  Co  Co3  1  0.46571600  0.23285800  0.75000000  1
  Co  Co3  1  0.46571600  0.23285800  0.95000000  1
  Co  Co3  1  0.46571600  0.43285800  0.15000000  1
  Co  Co3  1  0.46571600  0.43285800  0.35000000  1
  Co  Co3  1  0.46571600  0.43285800  0.55000000  1
  Co  Co3  1  0.46571600  0.43285800  0.75000000  1
  Co  Co3  1  0.46571600  0.43285800  0.95000000  1
  Co  Co3  1  0.46571600  0.63285800  0.15000000  1
  Co  Co3  1  0.46571600  0.63285800  0.35000000  1
  Co  Co3  1  0.46571600  0.63285800  0.55000000  1
  Co  Co3  1  0.46571600  0.63285800  0.75000000  1
  Co  Co3  1  0.46571600  0.63285800  0.95000000  1
  Co  Co3  1  0.46571600  0.83285800  0.15000000  1
  Co  Co3  1  0.46571600  0.83285800  0.35000000  1
  Co  Co3  1  0.46571600  0.83285800  0.55000000  1
  Co  Co3  1  0.46571600  0.83285800  0.75000000  1
  Co  Co3  1  0.46571600  0.83285800  0.95000000  1
  Co  Co3  1  0.66571600  0.03285800  0.15000000  1
  Co  Co3  1  0.66571600  0.03285800  0.35000000  1
  Co  Co3  1  0.66571600  0.03285800  0.55000000  1
  Co  Co3  1  0.66571600  0.03285800  0.75000000  1
  Co  Co3  1  0.66571600  0.03285800  0.95000000  1
  Co  Co3  1  0.66571600  0.23285800  0.15000000  1
  Co  Co3  1  0.66571600  0.23285800  0.35000000  1
  Co  Co3  1  0.66571600  0.23285800  0.55000000  1
  Co  Co3  1  0.66571600  0.23285800  0.75000000  1
  Co  Co3  1  0.66571600  0.23285800  0.95000000  1
  Co  Co3  1  0.66571600  0.43285800  0.15000000  1
  Co  Co3  1  0.66571600  0.43285800  0.35000000  1
  Co  Co3  1  0.66571600  0.43285800  0.55000000  1
  Co  Co3  1  0.66571600  0.43285800  0.75000000  1
  Co  Co3  1  0.66571600  0.43285800  0.95000000  1
  Co  Co3  1  0.66571600  0.63285800  0.15000000  1
  Co  Co3  1  0.66571600  0.63285800  0.35000000  1
  Co  Co3  1  0.66571600  0.63285800  0.55000000  1
  Co  Co3  1  0.66571600  0.63285800  0.75000000  1
  Co  Co3  1  0.66571600  0.63285800  0.95000000  1
  Co  Co3  1  0.66571600  0.83285800  0.15000000  1
  Co  Co3  1  0.66571600  0.83285800  0.35000000  1
  Co  Co3  1  0.66571600  0.83285800  0.55000000  1
  Co  Co3  1  0.66571600  0.83285800  0.75000000  1
  Co  Co3  1  0.66571600  0.83285800  0.95000000  1
  Co  Co3  1  0.86571600  0.03285800  0.15000000  1
  Co  Co3  1  0.86571600  0.03285800  0.35000000  1
  Co  Co3  1  0.86571600  0.03285800  0.55000000  1
  Co  Co3  1  0.86571600  0.03285800  0.75000000  1
  Co  Co3  1  0.86571600  0.03285800  0.95000000  1
  Co  Co3  1  0.86571600  0.23285800  0.15000000  1
  Co  Co3  1  0.86571600  0.23285800  0.35000000  1
  Co  Co3  1  0.86571600  0.23285800  0.55000000  1
  Co  Co3  1  0.86571600  0.23285800  0.75000000  1
  Co  Co3  1  0.86571600  0.23285800  0.95000000  1
  Co  Co3  1  0.86571600  0.43285800  0.15000000  1
  Co  Co3  1  0.86571600  0.43285800  0.35000000  1
  Co  Co3  1  0.86571600  0.43285800  0.55000000  1
  Co  Co3  1  0.86571600  0.43285800  0.75000000  1
  Co  Co3  1  0.86571600  0.43285800  0.95000000  1
  Co  Co3  1  0.86571600  0.63285800  0.15000000  1
  Co  Co3  1  0.86571600  0.63285800  0.35000000  1
  Co  Co3  1  0.86571600  0.63285800  0.55000000  1
  Co  Co3  1  0.86571600  0.63285800  0.75000000  1
  Co  Co3  1  0.86571600  0.63285800  0.95000000  1
  Co  Co3  1  0.86571600  0.83285800  0.15000000  1
  Co  Co3  1  0.86571600  0.83285800  0.35000000  1
  Co  Co3  1  0.86571600  0.83285800  0.55000000  1
  Co  Co3  1  0.86571600  0.83285800  0.75000000  1
  Co  Co3  1  0.86571600  0.83285800  0.95000000  1
  Co  Co2  1  0.10000000  0.00000000  0.00000000  1
  Co  Co2  1  0.10000000  0.00000000  0.20000000  1
  Co  Co2  1  0.10000000  0.00000000  0.40000000  1
  Co  Co2  1  0.10000000  0.00000000  0.60000000  1
  Co  Co2  1  0.10000000  0.00000000  0.80000000  1
  Co  Co2  1  0.10000000  0.20000000  0.00000000  1
  Co  Co2  1  0.10000000  0.20000000  0.20000000  1
  Co  Co2  1  0.10000000  0.20000000  0.40000000  1
  Co  Co2  1  0.10000000  0.20000000  0.60000000  1
  Co  Co2  1  0.10000000  0.20000000  0.80000000  1
  Co  Co2  1  0.10000000  0.40000000  0.00000000  1
  Co  Co2  1  0.10000000  0.40000000  0.20000000  1
  Co  Co2  1  0.10000000  0.40000000  0.40000000  1
  Co  Co2  1  0.10000000  0.40000000  0.60000000  1
  Co  Co2  1  0.10000000  0.40000000  0.80000000  1
  Co  Co2  1  0.10000000  0.60000000  0.00000000  1
  Co  Co2  1  0.10000000  0.60000000  0.20000000  1
  Co  Co2  1  0.10000000  0.60000000  0.40000000  1
  Co  Co2  1  0.10000000  0.60000000  0.60000000  1
  Co  Co2  1  0.10000000  0.60000000  0.80000000  1
  Co  Co2  1  0.10000000  0.80000000  0.00000000  1
  Co  Co2  1  0.10000000  0.80000000  0.20000000  1
  Co  Co2  1  0.10000000  0.80000000  0.40000000  1
  Co  Co2  1  0.10000000  0.80000000  0.60000000  1
  Co  Co2  1  0.10000000  0.80000000  0.80000000  1
  Co  Co2  1  0.30000000  0.00000000  0.00000000  1
  Co  Co2  1  0.30000000  0.00000000  0.20000000  1
  Co  Co2  1  0.30000000  0.00000000  0.40000000  1
  Co  Co2  1  0.30000000  0.00000000  0.60000000  1
  Co  Co2  1  0.30000000  0.00000000  0.80000000  1
  Co  Co2  1  0.30000000  0.20000000  0.00000000  1
  Co  Co2  1  0.30000000  0.20000000  0.20000000  1
  Co  Co2  1  0.30000000  0.20000000  0.40000000  1
  Co  Co2  1  0.30000000  0.20000000  0.60000000  1
  Co  Co2  1  0.30000000  0.20000000  0.80000000  1
  Co  Co2  1  0.30000000  0.40000000  0.00000000  1
  Co  Co2  1  0.30000000  0.40000000  0.20000000  1
  Co  Co2  1  0.30000000  0.40000000  0.40000000  1
  Co  Co2  1  0.30000000  0.40000000  0.60000000  1
  Co  Co2  1  0.30000000  0.40000000  0.80000000  1
  Co  Co2  1  0.30000000  0.60000000  0.00000000  1
  Co  Co2  1  0.30000000  0.60000000  0.20000000  1
  Co  Co2  1  0.30000000  0.60000000  0.40000000  1
  Co  Co2  1  0.30000000  0.60000000  0.60000000  1
  Co  Co2  1  0.30000000  0.60000000  0.80000000  1
  Co  Co2  1  0.30000000  0.80000000  0.00000000  1
  Co  Co2  1  0.30000000  0.80000000  0.20000000  1
  Co  Co2  1  0.30000000  0.80000000  0.40000000  1
  Co  Co2  1  0.30000000  0.80000000  0.60000000  1
  Co  Co2  1  0.30000000  0.80000000  0.80000000  1
  Co  Co2  1  0.50000000  0.00000000  0.00000000  1
  Co  Co2  1  0.50000000  0.00000000  0.20000000  1
  Co  Co2  1  0.50000000  0.00000000  0.40000000  1
  Co  Co2  1  0.50000000  0.00000000  0.60000000  1
  Co  Co2  1  0.50000000  0.00000000  0.80000000  1
  Co  Co2  1  0.50000000  0.20000000  0.00000000  1
  Co  Co2  1  0.50000000  0.20000000  0.20000000  1
  Co  Co2  1  0.50000000  0.20000000  0.40000000  1
  Co  Co2  1  0.50000000  0.20000000  0.60000000  1
  Co  Co2  1  0.50000000  0.20000000  0.80000000  1
  Co  Co2  1  0.50000000  0.40000000  0.00000000  1
  Co  Co2  1  0.50000000  0.40000000  0.20000000  1
  Co  Co2  1  0.50000000  0.40000000  0.40000000  1
  Co  Co2  1  0.50000000  0.40000000  0.60000000  1
  Co  Co2  1  0.50000000  0.40000000  0.80000000  1
  Co  Co2  1  0.50000000  0.60000000  0.00000000  1
  Co  Co2  1  0.50000000  0.60000000  0.20000000  1
  Co  Co2  1  0.50000000  0.60000000  0.40000000  1
  Co  Co2  1  0.50000000  0.60000000  0.60000000  1
  Co  Co2  1  0.50000000  0.60000000  0.80000000  1
  Co  Co2  1  0.50000000  0.80000000  0.00000000  1
  Co  Co2  1  0.50000000  0.80000000  0.20000000  1
  Co  Co2  1  0.50000000  0.80000000  0.40000000  1
  Co  Co2  1  0.50000000  0.80000000  0.60000000  1
  Co  Co2  1  0.50000000  0.80000000  0.80000000  1
  Co  Co2  1  0.70000000  0.00000000  0.00000000  1
  Co  Co2  1  0.70000000  0.00000000  0.20000000  1
  Co  Co2  1  0.70000000  0.00000000  0.40000000  1
  Co  Co2  1  0.70000000  0.00000000  0.60000000  1
  Co  Co2  1  0.70000000  0.00000000  0.80000000  1
  Co  Co2  1  0.70000000  0.20000000  0.00000000  1
  Co  Co2  1  0.70000000  0.20000000  0.20000000  1
  Co  Co2  1  0.70000000  0.20000000  0.40000000  1
  Co  Co2  1  0.70000000  0.20000000  0.60000000  1
  Co  Co2  1  0.70000000  0.20000000  0.80000000  1
  Co  Co2  1  0.70000000  0.40000000  0.00000000  1
  Co  Co2  1  0.70000000  0.40000000  0.20000000  1
  Co  Co2  1  0.70000000  0.40000000  0.40000000  1
  Co  Co2  1  0.70000000  0.40000000  0.60000000  1
  Co  Co2  1  0.70000000  0.40000000  0.80000000  1
  Co  Co2  1  0.70000000  0.60000000  0.00000000  1
  Co  Co2  1  0.70000000  0.60000000  0.20000000  1
  Co  Co2  1  0.70000000  0.60000000  0.40000000  1
  Co  Co2  1  0.70000000  0.60000000  0.60000000  1
  Co  Co2  1  0.70000000  0.60000000  0.80000000  1
  Co  Co2  1  0.70000000  0.80000000  0.00000000  1
  Co  Co2  1  0.70000000  0.80000000  0.20000000  1
  Co  Co2  1  0.70000000  0.80000000  0.40000000  1
  Co  Co2  1  0.70000000  0.80000000  0.60000000  1
  Co  Co2  1  0.70000000  0.80000000  0.80000000  1
  Co  Co2  1  0.90000000  0.00000000  0.00000000  1
  Co  Co2  1  0.90000000  0.00000000  0.20000000  1
  Co  Co2  1  0.90000000  0.00000000  0.40000000  1
  Co  Co2  1  0.90000000  0.00000000  0.60000000  1
  Co  Co2  1  0.90000000  0.00000000  0.80000000  1
  Co  Co2  1  0.90000000  0.20000000  0.00000000  1
  Co  Co2  1  0.90000000  0.20000000  0.20000000  1
  Co  Co2  1  0.90000000  0.20000000  0.40000000  1
  Co  Co2  1  0.90000000  0.20000000  0.60000000  1
  Co  Co2  1  0.90000000  0.20000000  0.80000000  1
  Co  Co2  1  0.90000000  0.40000000  0.00000000  1
  Co  Co2  1  0.90000000  0.40000000  0.20000000  1
  Co  Co2  1  0.90000000  0.40000000  0.40000000  1
  Co  Co2  1  0.90000000  0.40000000  0.60000000  1
  Co  Co2  1  0.90000000  0.40000000  0.80000000  1
  Co  Co2  1  0.90000000  0.60000000  0.00000000  1
  Co  Co2  1  0.90000000  0.60000000  0.20000000  1
  Co  Co2  1  0.90000000  0.60000000  0.40000000  1
  Co  Co2  1  0.90000000  0.60000000  0.60000000  1
  Co  Co2  1  0.90000000  0.60000000  0.80000000  1
  Co  Co2  1  0.90000000  0.80000000  0.00000000  1
  Co  Co2  1  0.90000000  0.80000000  0.20000000  1
  Co  Co2  1  0.90000000  0.80000000  0.40000000  1
  Co  Co2  1  0.90000000  0.80000000  0.60000000  1
  Co  Co2  1  0.90000000  0.80000000  0.80000000  1
  Co  Co2  1  0.10000000  0.10000000  0.10000000  1
  Co  Co2  1  0.10000000  0.10000000  0.30000000  1
  Co  Co2  1  0.10000000  0.10000000  0.50000000  1
  Co  Co2  1  0.10000000  0.10000000  0.70000000  1
  Co  Co2  1  0.10000000  0.10000000  0.90000000  1
  Co  Co2  1  0.10000000  0.30000000  0.10000000  1
  Co  Co2  1  0.10000000  0.30000000  0.30000000  1
  Co  Co2  1  0.10000000  0.30000000  0.50000000  1
  Co  Co2  1  0.10000000  0.30000000  0.70000000  1
  Co  Co2  1  0.10000000  0.30000000  0.90000000  1
  Co  Co2  1  0.10000000  0.50000000  0.10000000  1
  Co  Co2  1  0.10000000  0.50000000  0.30000000  1
  Co  Co2  1  0.10000000  0.50000000  0.50000000  1
  Co  Co2  1  0.10000000  0.50000000  0.70000000  1
  Co  Co2  1  0.10000000  0.50000000  0.90000000  1
  Co  Co2  1  0.10000000  0.70000000  0.10000000  1
  Co  Co2  1  0.10000000  0.70000000  0.30000000  1
  Co  Co2  1  0.10000000  0.70000000  0.50000000  1
  Co  Co2  1  0.10000000  0.70000000  0.70000000  1
  Co  Co2  1  0.10000000  0.70000000  0.90000000  1
  Co  Co2  1  0.10000000  0.90000000  0.10000000  1
  Co  Co2  1  0.10000000  0.90000000  0.30000000  1
  Co  Co2  1  0.10000000  0.90000000  0.50000000  1
  Co  Co2  1  0.10000000  0.90000000  0.70000000  1
  Co  Co2  1  0.10000000  0.90000000  0.90000000  1
  Co  Co2  1  0.30000000  0.10000000  0.10000000  1
  Co  Co2  1  0.30000000  0.10000000  0.30000000  1
  Co  Co2  1  0.30000000  0.10000000  0.50000000  1
  Co  Co2  1  0.30000000  0.10000000  0.70000000  1
  Co  Co2  1  0.30000000  0.10000000  0.90000000  1
  Co  Co2  1  0.30000000  0.30000000  0.10000000  1
  Co  Co2  1  0.30000000  0.30000000  0.30000000  1
  Co  Co2  1  0.30000000  0.30000000  0.50000000  1
  Co  Co2  1  0.30000000  0.30000000  0.70000000  1
  Co  Co2  1  0.30000000  0.30000000  0.90000000  1
  Co  Co2  1  0.30000000  0.50000000  0.10000000  1
  Co  Co2  1  0.30000000  0.50000000  0.30000000  1
  Co  Co2  1  0.30000000  0.50000000  0.50000000  1
  Co  Co2  1  0.30000000  0.50000000  0.70000000  1
  Co  Co2  1  0.30000000  0.50000000  0.90000000  1
  Co  Co2  1  0.30000000  0.70000000  0.10000000  1
  Co  Co2  1  0.30000000  0.70000000  0.30000000  1
  Co  Co2  1  0.30000000  0.70000000  0.50000000  1
  Co  Co2  1  0.30000000  0.70000000  0.70000000  1
  Co  Co2  1  0.30000000  0.70000000  0.90000000  1
  Co  Co2  1  0.30000000  0.90000000  0.10000000  1
  Co  Co2  1  0.30000000  0.90000000  0.30000000  1
  Co  Co2  1  0.30000000  0.90000000  0.50000000  1
  Co  Co2  1  0.30000000  0.90000000  0.70000000  1
  Co  Co2  1  0.30000000  0.90000000  0.90000000  1
  Co  Co2  1  0.50000000  0.10000000  0.10000000  1
  Co  Co2  1  0.50000000  0.10000000  0.30000000  1
  Co  Co2  1  0.50000000  0.10000000  0.50000000  1
  Co  Co2  1  0.50000000  0.10000000  0.70000000  1
  Co  Co2  1  0.50000000  0.10000000  0.90000000  1
  Co  Co2  1  0.50000000  0.30000000  0.10000000  1
  Co  Co2  1  0.50000000  0.30000000  0.30000000  1
  Co  Co2  1  0.50000000  0.30000000  0.50000000  1
  Co  Co2  1  0.50000000  0.30000000  0.70000000  1
  Co  Co2  1  0.50000000  0.30000000  0.90000000  1
  Co  Co2  1  0.50000000  0.50000000  0.10000000  1
  Co  Co2  1  0.50000000  0.50000000  0.30000000  1
  Co  Co2  1  0.50000000  0.50000000  0.50000000  1
  Co  Co2  1  0.50000000  0.50000000  0.70000000  1
  Co  Co2  1  0.50000000  0.50000000  0.90000000  1
  Co  Co2  1  0.50000000  0.70000000  0.10000000  1
  Co  Co2  1  0.50000000  0.70000000  0.30000000  1
  Co  Co2  1  0.50000000  0.70000000  0.50000000  1
  Co  Co2  1  0.50000000  0.70000000  0.70000000  1
  Co  Co2  1  0.50000000  0.70000000  0.90000000  1
  Co  Co2  1  0.50000000  0.90000000  0.10000000  1
  Co  Co2  1  0.50000000  0.90000000  0.30000000  1
  Co  Co2  1  0.50000000  0.90000000  0.50000000  1
  Co  Co2  1  0.50000000  0.90000000  0.70000000  1
  Co  Co2  1  0.50000000  0.90000000  0.90000000  1
  Co  Co2  1  0.70000000  0.10000000  0.10000000  1
  Co  Co2  1  0.70000000  0.10000000  0.30000000  1
  Co  Co2  1  0.70000000  0.10000000  0.50000000  1
  Co  Co2  1  0.70000000  0.10000000  0.70000000  1
  Co  Co2  1  0.70000000  0.10000000  0.90000000  1
  Co  Co2  1  0.70000000  0.30000000  0.10000000  1
  Co  Co2  1  0.70000000  0.30000000  0.30000000  1
  Co  Co2  1  0.70000000  0.30000000  0.50000000  1
  Co  Co2  1  0.70000000  0.30000000  0.70000000  1
  Co  Co2  1  0.70000000  0.30000000  0.90000000  1
  Co  Co2  1  0.70000000  0.50000000  0.10000000  1
  Co  Co2  1  0.70000000  0.50000000  0.30000000  1
  Co  Co2  1  0.70000000  0.50000000  0.50000000  1
  Co  Co2  1  0.70000000  0.50000000  0.70000000  1
  Co  Co2  1  0.70000000  0.50000000  0.90000000  1
  Co  Co2  1  0.70000000  0.70000000  0.10000000  1
  Co  Co2  1  0.70000000  0.70000000  0.30000000  1
  Co  Co2  1  0.70000000  0.70000000  0.50000000  1
  Co  Co2  1  0.70000000  0.70000000  0.70000000  1
  Co  Co2  1  0.70000000  0.70000000  0.90000000  1
  Co  Co2  1  0.70000000  0.90000000  0.10000000  1
  Co  Co2  1  0.70000000  0.90000000  0.30000000  1
  Co  Co2  1  0.70000000  0.90000000  0.50000000  1
  Co  Co2  1  0.70000000  0.90000000  0.70000000  1
  Co  Co2  1  0.70000000  0.90000000  0.90000000  1
  Co  Co2  1  0.90000000  0.10000000  0.10000000  1
  Co  Co2  1  0.90000000  0.10000000  0.30000000  1
  Co  Co2  1  0.90000000  0.10000000  0.50000000  1
  Co  Co2  1  0.90000000  0.10000000  0.70000000  1
  Co  Co2  1  0.90000000  0.10000000  0.90000000  1
  Co  Co2  1  0.90000000  0.30000000  0.10000000  1
  Co  Co2  1  0.90000000  0.30000000  0.30000000  1
  Co  Co2  1  0.90000000  0.30000000  0.50000000  1
  Co  Co2  1  0.90000000  0.30000000  0.70000000  1
  Co  Co2  1  0.90000000  0.30000000  0.90000000  1
  Co  Co2  1  0.90000000  0.50000000  0.10000000  1
  Co  Co2  1  0.90000000  0.50000000  0.30000000  1
  Co  Co2  1  0.90000000  0.50000000  0.50000000  1
  Co  Co2  1  0.90000000  0.50000000  0.70000000  1
  Co  Co2  1  0.90000000  0.50000000  0.90000000  1
  Co  Co2  1  0.90000000  0.70000000  0.10000000  1
  Co  Co2  1  0.90000000  0.70000000  0.30000000  1
  Co  Co2  1  0.90000000  0.70000000  0.50000000  1
  Co  Co2  1  0.90000000  0.70000000  0.70000000  1
  Co  Co2  1  0.90000000  0.70000000  0.90000000  1
  Co  Co2  1  0.90000000  0.90000000  0.10000000  1
  Co  Co2  1  0.90000000  0.90000000  0.30000000  1
  Co  Co2  1  0.90000000  0.90000000  0.50000000  1
  Co  Co2  1  0.90000000  0.90000000  0.70000000  1
  Co  Co2  1  0.90000000  0.90000000  0.90000000  1
  Co  Co2  1  0.00000000  0.10000000  0.00000000  1
  Co  Co2  1  0.00000000  0.10000000  0.20000000  1
  Co  Co2  1  0.00000000  0.10000000  0.40000000  1
  Co  Co2  1  0.00000000  0.10000000  0.60000000  1
  Co  Co2  1  0.00000000  0.10000000  0.80000000  1
  Co  Co2  1  0.00000000  0.30000000  0.00000000  1
  Co  Co2  1  0.00000000  0.30000000  0.20000000  1
  Co  Co2  1  0.00000000  0.30000000  0.40000000  1
  Co  Co2  1  0.00000000  0.30000000  0.60000000  1
  Co  Co2  1  0.00000000  0.30000000  0.80000000  1
  Co  Co2  1  0.00000000  0.50000000  0.00000000  1
  Co  Co2  1  0.00000000  0.50000000  0.20000000  1
  Co  Co2  1  0.00000000  0.50000000  0.40000000  1
  Co  Co2  1  0.00000000  0.50000000  0.60000000  1
  Co  Co2  1  0.00000000  0.50000000  0.80000000  1
  Co  Co2  1  0.00000000  0.70000000  0.00000000  1
  Co  Co2  1  0.00000000  0.70000000  0.20000000  1
  Co  Co2  1  0.00000000  0.70000000  0.40000000  1
  Co  Co2  1  0.00000000  0.70000000  0.60000000  1
  Co  Co2  1  0.00000000  0.70000000  0.80000000  1
  Co  Co2  1  0.00000000  0.90000000  0.00000000  1
  Co  Co2  1  0.00000000  0.90000000  0.20000000  1
  Co  Co2  1  0.00000000  0.90000000  0.40000000  1
  Co  Co2  1  0.00000000  0.90000000  0.60000000  1
  Co  Co2  1  0.00000000  0.90000000  0.80000000  1
  Co  Co2  1  0.20000000  0.10000000  0.00000000  1
  Co  Co2  1  0.20000000  0.10000000  0.20000000  1
  Co  Co2  1  0.20000000  0.10000000  0.40000000  1
  Co  Co2  1  0.20000000  0.10000000  0.60000000  1
  Co  Co2  1  0.20000000  0.10000000  0.80000000  1
  Co  Co2  1  0.20000000  0.30000000  0.00000000  1
  Co  Co2  1  0.20000000  0.30000000  0.20000000  1
  Co  Co2  1  0.20000000  0.30000000  0.40000000  1
  Co  Co2  1  0.20000000  0.30000000  0.60000000  1
  Co  Co2  1  0.20000000  0.30000000  0.80000000  1
  Co  Co2  1  0.20000000  0.50000000  0.00000000  1
  Co  Co2  1  0.20000000  0.50000000  0.20000000  1
  Co  Co2  1  0.20000000  0.50000000  0.40000000  1
  Co  Co2  1  0.20000000  0.50000000  0.60000000  1
  Co  Co2  1  0.20000000  0.50000000  0.80000000  1
  Co  Co2  1  0.20000000  0.70000000  0.00000000  1
  Co  Co2  1  0.20000000  0.70000000  0.20000000  1
  Co  Co2  1  0.20000000  0.70000000  0.40000000  1
  Co  Co2  1  0.20000000  0.70000000  0.60000000  1
  Co  Co2  1  0.20000000  0.70000000  0.80000000  1
  Co  Co2  1  0.20000000  0.90000000  0.00000000  1
  Co  Co2  1  0.20000000  0.90000000  0.20000000  1
  Co  Co2  1  0.20000000  0.90000000  0.40000000  1
  Co  Co2  1  0.20000000  0.90000000  0.60000000  1
  Co  Co2  1  0.20000000  0.90000000  0.80000000  1
  Co  Co2  1  0.40000000  0.10000000  0.00000000  1
  Co  Co2  1  0.40000000  0.10000000  0.20000000  1
  Co  Co2  1  0.40000000  0.10000000  0.40000000  1
  Co  Co2  1  0.40000000  0.10000000  0.60000000  1
  Co  Co2  1  0.40000000  0.10000000  0.80000000  1
  Co  Co2  1  0.40000000  0.30000000  0.00000000  1
  Co  Co2  1  0.40000000  0.30000000  0.20000000  1
  Co  Co2  1  0.40000000  0.30000000  0.40000000  1
  Co  Co2  1  0.40000000  0.30000000  0.60000000  1
  Co  Co2  1  0.40000000  0.30000000  0.80000000  1
  Co  Co2  1  0.40000000  0.50000000  0.00000000  1
  Co  Co2  1  0.40000000  0.50000000  0.20000000  1
  Co  Co2  1  0.40000000  0.50000000  0.40000000  1
  Co  Co2  1  0.40000000  0.50000000  0.60000000  1
  Co  Co2  1  0.40000000  0.50000000  0.80000000  1
  Co  Co2  1  0.40000000  0.70000000  0.00000000  1
  Co  Co2  1  0.40000000  0.70000000  0.20000000  1
  Co  Co2  1  0.40000000  0.70000000  0.40000000  1
  Co  Co2  1  0.40000000  0.70000000  0.60000000  1
  Co  Co2  1  0.40000000  0.70000000  0.80000000  1
  Co  Co2  1  0.40000000  0.90000000  0.00000000  1
  Co  Co2  1  0.40000000  0.90000000  0.20000000  1
  Co  Co2  1  0.40000000  0.90000000  0.40000000  1
  Co  Co2  1  0.40000000  0.90000000  0.60000000  1
  Co  Co2  1  0.40000000  0.90000000  0.80000000  1
  Co  Co2  1  0.60000000  0.10000000  0.00000000  1
  Co  Co2  1  0.60000000  0.10000000  0.20000000  1
  Co  Co2  1  0.60000000  0.10000000  0.40000000  1
  Co  Co2  1  0.60000000  0.10000000  0.60000000  1
  Co  Co2  1  0.60000000  0.10000000  0.80000000  1
  Co  Co2  1  0.60000000  0.30000000  0.00000000  1
  Co  Co2  1  0.60000000  0.30000000  0.20000000  1
  Co  Co2  1  0.60000000  0.30000000  0.40000000  1
  Co  Co2  1  0.60000000  0.30000000  0.60000000  1
  Co  Co2  1  0.60000000  0.30000000  0.80000000  1
  Co  Co2  1  0.60000000  0.50000000  0.00000000  1
  Co  Co2  1  0.60000000  0.50000000  0.20000000  1
  Co  Co2  1  0.60000000  0.50000000  0.40000000  1
  Co  Co2  1  0.60000000  0.50000000  0.60000000  1
  Co  Co2  1  0.60000000  0.50000000  0.80000000  1
  Co  Co2  1  0.60000000  0.70000000  0.00000000  1
  Co  Co2  1  0.60000000  0.70000000  0.20000000  1
  Co  Co2  1  0.60000000  0.70000000  0.40000000  1
  Co  Co2  1  0.60000000  0.70000000  0.60000000  1
  Co  Co2  1  0.60000000  0.70000000  0.80000000  1
  Co  Co2  1  0.60000000  0.90000000  0.00000000  1
  Co  Co2  1  0.60000000  0.90000000  0.20000000  1
  Co  Co2  1  0.60000000  0.90000000  0.40000000  1
  Co  Co2  1  0.60000000  0.90000000  0.60000000  1
  Co  Co2  1  0.60000000  0.90000000  0.80000000  1
  Co  Co2  1  0.80000000  0.10000000  0.00000000  1
  Co  Co2  1  0.80000000  0.10000000  0.20000000  1
  Co  Co2  1  0.80000000  0.10000000  0.40000000  1
  Co  Co2  1  0.80000000  0.10000000  0.60000000  1
  Co  Co2  1  0.80000000  0.10000000  0.80000000  1
  Co  Co2  1  0.80000000  0.30000000  0.00000000  1
  Co  Co2  1  0.80000000  0.30000000  0.20000000  1
  Co  Co2  1  0.80000000  0.30000000  0.40000000  1
  Co  Co2  1  0.80000000  0.30000000  0.60000000  1
  Co  Co2  1  0.80000000  0.30000000  0.80000000  1
  Co  Co2  1  0.80000000  0.50000000  0.00000000  1
  Co  Co2  1  0.80000000  0.50000000  0.20000000  1
  Co  Co2  1  0.80000000  0.50000000  0.40000000  1
  Co  Co2  1  0.80000000  0.50000000  0.60000000  1
  Co  Co2  1  0.80000000  0.50000000  0.80000000  1
  Co  Co2  1  0.80000000  0.70000000  0.00000000  1
  Co  Co2  1  0.80000000  0.70000000  0.20000000  1
  Co  Co2  1  0.80000000  0.70000000  0.40000000  1
  Co  Co2  1  0.80000000  0.70000000  0.60000000  1
  Co  Co2  1  0.80000000  0.70000000  0.80000000  1
  Co  Co2  1  0.80000000  0.90000000  0.00000000  1
  Co  Co2  1  0.80000000  0.90000000  0.20000000  1
  Co  Co2  1  0.80000000  0.90000000  0.40000000  1
  Co  Co2  1  0.80000000  0.90000000  0.60000000  1
  Co  Co2  1  0.80000000  0.90000000  0.80000000  1
  Co  Co2  1  0.10000000  0.00000000  0.10000000  1
  Co  Co2  1  0.10000000  0.00000000  0.30000000  1
  Co  Co2  1  0.10000000  0.00000000  0.50000000  1
  Co  Co2  1  0.10000000  0.00000000  0.70000000  1
  Co  Co2  1  0.10000000  0.00000000  0.90000000  1
  Co  Co2  1  0.10000000  0.20000000  0.10000000  1
  Co  Co2  1  0.10000000  0.20000000  0.30000000  1
  Co  Co2  1  0.10000000  0.20000000  0.50000000  1
  Co  Co2  1  0.10000000  0.20000000  0.70000000  1
  Co  Co2  1  0.10000000  0.20000000  0.90000000  1
  Co  Co2  1  0.10000000  0.40000000  0.10000000  1
  Co  Co2  1  0.10000000  0.40000000  0.30000000  1
  Co  Co2  1  0.10000000  0.40000000  0.50000000  1
  Co  Co2  1  0.10000000  0.40000000  0.70000000  1
  Co  Co2  1  0.10000000  0.40000000  0.90000000  1
  Co  Co2  1  0.10000000  0.60000000  0.10000000  1
  Co  Co2  1  0.10000000  0.60000000  0.30000000  1
  Co  Co2  1  0.10000000  0.60000000  0.50000000  1
  Co  Co2  1  0.10000000  0.60000000  0.70000000  1
  Co  Co2  1  0.10000000  0.60000000  0.90000000  1
  Co  Co2  1  0.10000000  0.80000000  0.10000000  1
  Co  Co2  1  0.10000000  0.80000000  0.30000000  1
  Co  Co2  1  0.10000000  0.80000000  0.50000000  1
  Co  Co2  1  0.10000000  0.80000000  0.70000000  1
  Co  Co2  1  0.10000000  0.80000000  0.90000000  1
  Co  Co2  1  0.30000000  0.00000000  0.10000000  1
  Co  Co2  1  0.30000000  0.00000000  0.30000000  1
  Co  Co2  1  0.30000000  0.00000000  0.50000000  1
  Co  Co2  1  0.30000000  0.00000000  0.70000000  1
  Co  Co2  1  0.30000000  0.00000000  0.90000000  1
  Co  Co2  1  0.30000000  0.20000000  0.10000000  1
  Co  Co2  1  0.30000000  0.20000000  0.30000000  1
  Co  Co2  1  0.30000000  0.20000000  0.50000000  1
  Co  Co2  1  0.30000000  0.20000000  0.70000000  1
  Co  Co2  1  0.30000000  0.20000000  0.90000000  1
  Co  Co2  1  0.30000000  0.40000000  0.10000000  1
  Co  Co2  1  0.30000000  0.40000000  0.30000000  1
  Co  Co2  1  0.30000000  0.40000000  0.50000000  1
  Co  Co2  1  0.30000000  0.40000000  0.70000000  1
  Co  Co2  1  0.30000000  0.40000000  0.90000000  1
  Co  Co2  1  0.30000000  0.60000000  0.10000000  1
  Co  Co2  1  0.30000000  0.60000000  0.30000000  1
  Co  Co2  1  0.30000000  0.60000000  0.50000000  1
  Co  Co2  1  0.30000000  0.60000000  0.70000000  1
  Co  Co2  1  0.30000000  0.60000000  0.90000000  1
  Co  Co2  1  0.30000000  0.80000000  0.10000000  1
  Co  Co2  1  0.30000000  0.80000000  0.30000000  1
  Co  Co2  1  0.30000000  0.80000000  0.50000000  1
  Co  Co2  1  0.30000000  0.80000000  0.70000000  1
  Co  Co2  1  0.30000000  0.80000000  0.90000000  1
  Co  Co2  1  0.50000000  0.00000000  0.10000000  1
  Co  Co2  1  0.50000000  0.00000000  0.30000000  1
  Co  Co2  1  0.50000000  0.00000000  0.50000000  1
  Co  Co2  1  0.50000000  0.00000000  0.70000000  1
  Co  Co2  1  0.50000000  0.00000000  0.90000000  1
  Co  Co2  1  0.50000000  0.20000000  0.10000000  1
  Co  Co2  1  0.50000000  0.20000000  0.30000000  1
  Co  Co2  1  0.50000000  0.20000000  0.50000000  1
  Co  Co2  1  0.50000000  0.20000000  0.70000000  1
  Co  Co2  1  0.50000000  0.20000000  0.90000000  1
  Co  Co2  1  0.50000000  0.40000000  0.10000000  1
  Co  Co2  1  0.50000000  0.40000000  0.30000000  1
  Co  Co2  1  0.50000000  0.40000000  0.50000000  1
  Co  Co2  1  0.50000000  0.40000000  0.70000000  1
  Co  Co2  1  0.50000000  0.40000000  0.90000000  1
  Co  Co2  1  0.50000000  0.60000000  0.10000000  1
  Co  Co2  1  0.50000000  0.60000000  0.30000000  1
  Co  Co2  1  0.50000000  0.60000000  0.50000000  1
  Co  Co2  1  0.50000000  0.60000000  0.70000000  1
  Co  Co2  1  0.50000000  0.60000000  0.90000000  1
  Co  Co2  1  0.50000000  0.80000000  0.10000000  1
  Co  Co2  1  0.50000000  0.80000000  0.30000000  1
  Co  Co2  1  0.50000000  0.80000000  0.50000000  1
  Co  Co2  1  0.50000000  0.80000000  0.70000000  1
  Co  Co2  1  0.50000000  0.80000000  0.90000000  1
  Co  Co2  1  0.70000000  0.00000000  0.10000000  1
  Co  Co2  1  0.70000000  0.00000000  0.30000000  1
  Co  Co2  1  0.70000000  0.00000000  0.50000000  1
  Co  Co2  1  0.70000000  0.00000000  0.70000000  1
  Co  Co2  1  0.70000000  0.00000000  0.90000000  1
  Co  Co2  1  0.70000000  0.20000000  0.10000000  1
  Co  Co2  1  0.70000000  0.20000000  0.30000000  1
  Co  Co2  1  0.70000000  0.20000000  0.50000000  1
  Co  Co2  1  0.70000000  0.20000000  0.70000000  1
  Co  Co2  1  0.70000000  0.20000000  0.90000000  1
  Co  Co2  1  0.70000000  0.40000000  0.10000000  1
  Co  Co2  1  0.70000000  0.40000000  0.30000000  1
  Co  Co2  1  0.70000000  0.40000000  0.50000000  1
  Co  Co2  1  0.70000000  0.40000000  0.70000000  1
  Co  Co2  1  0.70000000  0.40000000  0.90000000  1
  Co  Co2  1  0.70000000  0.60000000  0.10000000  1
  Co  Co2  1  0.70000000  0.60000000  0.30000000  1
  Co  Co2  1  0.70000000  0.60000000  0.50000000  1
  Co  Co2  1  0.70000000  0.60000000  0.70000000  1
  Co  Co2  1  0.70000000  0.60000000  0.90000000  1
  Co  Co2  1  0.70000000  0.80000000  0.10000000  1
  Co  Co2  1  0.70000000  0.80000000  0.30000000  1
  Co  Co2  1  0.70000000  0.80000000  0.50000000  1
  Co  Co2  1  0.70000000  0.80000000  0.70000000  1
  Co  Co2  1  0.70000000  0.80000000  0.90000000  1
  Co  Co2  1  0.90000000  0.00000000  0.10000000  1
  Co  Co2  1  0.90000000  0.00000000  0.30000000  1
  Co  Co2  1  0.90000000  0.00000000  0.50000000  1
  Co  Co2  1  0.90000000  0.00000000  0.70000000  1
  Co  Co2  1  0.90000000  0.00000000  0.90000000  1
  Co  Co2  1  0.90000000  0.20000000  0.10000000  1
  Co  Co2  1  0.90000000  0.20000000  0.30000000  1
  Co  Co2  1  0.90000000  0.20000000  0.50000000  1
  Co  Co2  1  0.90000000  0.20000000  0.70000000  1
  Co  Co2  1  0.90000000  0.20000000  0.90000000  1
  Co  Co2  1  0.90000000  0.40000000  0.10000000  1
  Co  Co2  1  0.90000000  0.40000000  0.30000000  1
  Co  Co2  1  0.90000000  0.40000000  0.50000000  1
  Co  Co2  1  0.90000000  0.40000000  0.70000000  1
  Co  Co2  1  0.90000000  0.40000000  0.90000000  1
  Co  Co2  1  0.90000000  0.60000000  0.10000000  1
  Co  Co2  1  0.90000000  0.60000000  0.30000000  1
  Co  Co2  1  0.90000000  0.60000000  0.50000000  1
  Co  Co2  1  0.90000000  0.60000000  0.70000000  1
  Co  Co2  1  0.90000000  0.60000000  0.90000000  1
  Co  Co2  1  0.90000000  0.80000000  0.10000000  1
  Co  Co2  1  0.90000000  0.80000000  0.30000000  1
  Co  Co2  1  0.90000000  0.80000000  0.50000000  1
  Co  Co2  1  0.90000000  0.80000000  0.70000000  1
  Co  Co2  1  0.90000000  0.80000000  0.90000000  1
  Co  Co2  1  0.10000000  0.10000000  0.00000000  1
  Co  Co2  1  0.10000000  0.10000000  0.20000000  1
  Co  Co2  1  0.10000000  0.10000000  0.40000000  1
  Co  Co2  1  0.10000000  0.10000000  0.60000000  1
  Co  Co2  1  0.10000000  0.10000000  0.80000000  1
  Co  Co2  1  0.10000000  0.30000000  0.00000000  1
  Co  Co2  1  0.10000000  0.30000000  0.20000000  1
  Co  Co2  1  0.10000000  0.30000000  0.40000000  1
  Co  Co2  1  0.10000000  0.30000000  0.60000000  1
  Co  Co2  1  0.10000000  0.30000000  0.80000000  1
  Co  Co2  1  0.10000000  0.50000000  0.00000000  1
  Co  Co2  1  0.10000000  0.50000000  0.20000000  1
  Co  Co2  1  0.10000000  0.50000000  0.40000000  1
  Co  Co2  1  0.10000000  0.50000000  0.60000000  1
  Co  Co2  1  0.10000000  0.50000000  0.80000000  1
  Co  Co2  1  0.10000000  0.70000000  0.00000000  1
  Co  Co2  1  0.10000000  0.70000000  0.20000000  1
  Co  Co2  1  0.10000000  0.70000000  0.40000000  1
  Co  Co2  1  0.10000000  0.70000000  0.60000000  1
  Co  Co2  1  0.10000000  0.70000000  0.80000000  1
  Co  Co2  1  0.10000000  0.90000000  0.00000000  1
  Co  Co2  1  0.10000000  0.90000000  0.20000000  1
  Co  Co2  1  0.10000000  0.90000000  0.40000000  1
  Co  Co2  1  0.10000000  0.90000000  0.60000000  1
  Co  Co2  1  0.10000000  0.90000000  0.80000000  1
  Co  Co2  1  0.30000000  0.10000000  0.00000000  1
  Co  Co2  1  0.30000000  0.10000000  0.20000000  1
  Co  Co2  1  0.30000000  0.10000000  0.40000000  1
  Co  Co2  1  0.30000000  0.10000000  0.60000000  1
  Co  Co2  1  0.30000000  0.10000000  0.80000000  1
  Co  Co2  1  0.30000000  0.30000000  0.00000000  1
  Co  Co2  1  0.30000000  0.30000000  0.20000000  1
  Co  Co2  1  0.30000000  0.30000000  0.40000000  1
  Co  Co2  1  0.30000000  0.30000000  0.60000000  1
  Co  Co2  1  0.30000000  0.30000000  0.80000000  1
  Co  Co2  1  0.30000000  0.50000000  0.00000000  1
  Co  Co2  1  0.30000000  0.50000000  0.20000000  1
  Co  Co2  1  0.30000000  0.50000000  0.40000000  1
  Co  Co2  1  0.30000000  0.50000000  0.60000000  1
  Co  Co2  1  0.30000000  0.50000000  0.80000000  1
  Co  Co2  1  0.30000000  0.70000000  0.00000000  1
  Co  Co2  1  0.30000000  0.70000000  0.20000000  1
  Co  Co2  1  0.30000000  0.70000000  0.40000000  1
  Co  Co2  1  0.30000000  0.70000000  0.60000000  1
  Co  Co2  1  0.30000000  0.70000000  0.80000000  1
  Co  Co2  1  0.30000000  0.90000000  0.00000000  1
  Co  Co2  1  0.30000000  0.90000000  0.20000000  1
  Co  Co2  1  0.30000000  0.90000000  0.40000000  1
  Co  Co2  1  0.30000000  0.90000000  0.60000000  1
  Co  Co2  1  0.30000000  0.90000000  0.80000000  1
  Co  Co2  1  0.50000000  0.10000000  0.00000000  1
  Co  Co2  1  0.50000000  0.10000000  0.20000000  1
  Co  Co2  1  0.50000000  0.10000000  0.40000000  1
  Co  Co2  1  0.50000000  0.10000000  0.60000000  1
  Co  Co2  1  0.50000000  0.10000000  0.80000000  1
  Co  Co2  1  0.50000000  0.30000000  0.00000000  1
  Co  Co2  1  0.50000000  0.30000000  0.20000000  1
  Co  Co2  1  0.50000000  0.30000000  0.40000000  1
  Co  Co2  1  0.50000000  0.30000000  0.60000000  1
  Co  Co2  1  0.50000000  0.30000000  0.80000000  1
  Co  Co2  1  0.50000000  0.50000000  0.00000000  1
  Co  Co2  1  0.50000000  0.50000000  0.20000000  1
  Co  Co2  1  0.50000000  0.50000000  0.40000000  1
  Co  Co2  1  0.50000000  0.50000000  0.60000000  1
  Co  Co2  1  0.50000000  0.50000000  0.80000000  1
  Co  Co2  1  0.50000000  0.70000000  0.00000000  1
  Co  Co2  1  0.50000000  0.70000000  0.20000000  1
  Co  Co2  1  0.50000000  0.70000000  0.40000000  1
  Co  Co2  1  0.50000000  0.70000000  0.60000000  1
  Co  Co2  1  0.50000000  0.70000000  0.80000000  1
  Co  Co2  1  0.50000000  0.90000000  0.00000000  1
  Co  Co2  1  0.50000000  0.90000000  0.20000000  1
  Co  Co2  1  0.50000000  0.90000000  0.40000000  1
  Co  Co2  1  0.50000000  0.90000000  0.60000000  1
  Co  Co2  1  0.50000000  0.90000000  0.80000000  1
  Co  Co2  1  0.70000000  0.10000000  0.00000000  1
  Co  Co2  1  0.70000000  0.10000000  0.20000000  1
  Co  Co2  1  0.70000000  0.10000000  0.40000000  1
  Co  Co2  1  0.70000000  0.10000000  0.60000000  1
  Co  Co2  1  0.70000000  0.10000000  0.80000000  1
  Co  Co2  1  0.70000000  0.30000000  0.00000000  1
  Co  Co2  1  0.70000000  0.30000000  0.20000000  1
  Co  Co2  1  0.70000000  0.30000000  0.40000000  1
  Co  Co2  1  0.70000000  0.30000000  0.60000000  1
  Co  Co2  1  0.70000000  0.30000000  0.80000000  1
  Co  Co2  1  0.70000000  0.50000000  0.00000000  1
  Co  Co2  1  0.70000000  0.50000000  0.20000000  1
  Co  Co2  1  0.70000000  0.50000000  0.40000000  1
  Co  Co2  1  0.70000000  0.50000000  0.60000000  1
  Co  Co2  1  0.70000000  0.50000000  0.80000000  1
  Co  Co2  1  0.70000000  0.70000000  0.00000000  1
  Co  Co2  1  0.70000000  0.70000000  0.20000000  1
  Co  Co2  1  0.70000000  0.70000000  0.40000000  1
  Co  Co2  1  0.70000000  0.70000000  0.60000000  1
  Co  Co2  1  0.70000000  0.70000000  0.80000000  1
  Co  Co2  1  0.70000000  0.90000000  0.00000000  1
  Co  Co2  1  0.70000000  0.90000000  0.20000000  1
  Co  Co2  1  0.70000000  0.90000000  0.40000000  1
  Co  Co2  1  0.70000000  0.90000000  0.60000000  1
  Co  Co2  1  0.70000000  0.90000000  0.80000000  1
  Co  Co2  1  0.90000000  0.10000000  0.00000000  1
  Co  Co2  1  0.90000000  0.10000000  0.20000000  1
  Co  Co2  1  0.90000000  0.10000000  0.40000000  1
  Co  Co2  1  0.90000000  0.10000000  0.60000000  1
  Co  Co2  1  0.90000000  0.10000000  0.80000000  1
  Co  Co2  1  0.90000000  0.30000000  0.00000000  1
  Co  Co2  1  0.90000000  0.30000000  0.20000000  1
  Co  Co2  1  0.90000000  0.30000000  0.40000000  1
  Co  Co2  1  0.90000000  0.30000000  0.60000000  1
  Co  Co2  1  0.90000000  0.30000000  0.80000000  1
  Co  Co2  1  0.90000000  0.50000000  0.00000000  1
  Co  Co2  1  0.90000000  0.50000000  0.20000000  1
  Co  Co2  1  0.90000000  0.50000000  0.40000000  1
  Co  Co2  1  0.90000000  0.50000000  0.60000000  1
  Co  Co2  1  0.90000000  0.50000000  0.80000000  1
  Co  Co2  1  0.90000000  0.70000000  0.00000000  1
  Co  Co2  1  0.90000000  0.70000000  0.20000000  1
  Co  Co2  1  0.90000000  0.70000000  0.40000000  1
  Co  Co2  1  0.90000000  0.70000000  0.60000000  1
  Co  Co2  1  0.90000000  0.70000000  0.80000000  1
  Co  Co2  1  0.90000000  0.90000000  0.00000000  1
  Co  Co2  1  0.90000000  0.90000000  0.20000000  1
  Co  Co2  1  0.90000000  0.90000000  0.40000000  1
  Co  Co2  1  0.90000000  0.90000000  0.60000000  1
  Co  Co2  1  0.90000000  0.90000000  0.80000000  1
  Co  Co2  1  0.00000000  0.10000000  0.10000000  1
  Co  Co2  1  0.00000000  0.10000000  0.30000000  1
  Co  Co2  1  0.00000000  0.10000000  0.50000000  1
  Co  Co2  1  0.00000000  0.10000000  0.70000000  1
  Co  Co2  1  0.00000000  0.10000000  0.90000000  1
  Co  Co2  1  0.00000000  0.30000000  0.10000000  1
  Co  Co2  1  0.00000000  0.30000000  0.30000000  1
  Co  Co2  1  0.00000000  0.30000000  0.50000000  1
  Co  Co2  1  0.00000000  0.30000000  0.70000000  1
  Co  Co2  1  0.00000000  0.30000000  0.90000000  1
  Co  Co2  1  0.00000000  0.50000000  0.10000000  1
  Co  Co2  1  0.00000000  0.50000000  0.30000000  1
  Co  Co2  1  0.00000000  0.50000000  0.50000000  1
  Co  Co2  1  0.00000000  0.50000000  0.70000000  1
  Co  Co2  1  0.00000000  0.50000000  0.90000000  1
  Co  Co2  1  0.00000000  0.70000000  0.10000000  1
  Co  Co2  1  0.00000000  0.70000000  0.30000000  1
  Co  Co2  1  0.00000000  0.70000000  0.50000000  1
  Co  Co2  1  0.00000000  0.70000000  0.70000000  1
  Co  Co2  1  0.00000000  0.70000000  0.90000000  1
  Co  Co2  1  0.00000000  0.90000000  0.10000000  1
  Co  Co2  1  0.00000000  0.90000000  0.30000000  1
  Co  Co2  1  0.00000000  0.90000000  0.50000000  1
  Co  Co2  1  0.00000000  0.90000000  0.70000000  1
  Co  Co2  1  0.00000000  0.90000000  0.90000000  1
  Co  Co2  1  0.20000000  0.10000000  0.10000000  1
  Co  Co2  1  0.20000000  0.10000000  0.30000000  1
  Co  Co2  1  0.20000000  0.10000000  0.50000000  1
  Co  Co2  1  0.20000000  0.10000000  0.70000000  1
  Co  Co2  1  0.20000000  0.10000000  0.90000000  1
  Co  Co2  1  0.20000000  0.30000000  0.10000000  1
  Co  Co2  1  0.20000000  0.30000000  0.30000000  1
  Co  Co2  1  0.20000000  0.30000000  0.50000000  1
  Co  Co2  1  0.20000000  0.30000000  0.70000000  1
  Co  Co2  1  0.20000000  0.30000000  0.90000000  1
  Co  Co2  1  0.20000000  0.50000000  0.10000000  1
  Co  Co2  1  0.20000000  0.50000000  0.30000000  1
  Co  Co2  1  0.20000000  0.50000000  0.50000000  1
  Co  Co2  1  0.20000000  0.50000000  0.70000000  1
  Co  Co2  1  0.20000000  0.50000000  0.90000000  1
  Co  Co2  1  0.20000000  0.70000000  0.10000000  1
  Co  Co2  1  0.20000000  0.70000000  0.30000000  1
  Co  Co2  1  0.20000000  0.70000000  0.50000000  1
  Co  Co2  1  0.20000000  0.70000000  0.70000000  1
  Co  Co2  1  0.20000000  0.70000000  0.90000000  1
  Co  Co2  1  0.20000000  0.90000000  0.10000000  1
  Co  Co2  1  0.20000000  0.90000000  0.30000000  1
  Co  Co2  1  0.20000000  0.90000000  0.50000000  1
  Co  Co2  1  0.20000000  0.90000000  0.70000000  1
  Co  Co2  1  0.20000000  0.90000000  0.90000000  1
  Co  Co2  1  0.40000000  0.10000000  0.10000000  1
  Co  Co2  1  0.40000000  0.10000000  0.30000000  1
  Co  Co2  1  0.40000000  0.10000000  0.50000000  1
  Co  Co2  1  0.40000000  0.10000000  0.70000000  1
  Co  Co2  1  0.40000000  0.10000000  0.90000000  1
  Co  Co2  1  0.40000000  0.30000000  0.10000000  1
  Co  Co2  1  0.40000000  0.30000000  0.30000000  1
  Co  Co2  1  0.40000000  0.30000000  0.50000000  1
  Co  Co2  1  0.40000000  0.30000000  0.70000000  1
  Co  Co2  1  0.40000000  0.30000000  0.90000000  1
  Co  Co2  1  0.40000000  0.50000000  0.10000000  1
  Co  Co2  1  0.40000000  0.50000000  0.30000000  1
  Co  Co2  1  0.40000000  0.50000000  0.50000000  1
  Co  Co2  1  0.40000000  0.50000000  0.70000000  1
  Co  Co2  1  0.40000000  0.50000000  0.90000000  1
  Co  Co2  1  0.40000000  0.70000000  0.10000000  1
  Co  Co2  1  0.40000000  0.70000000  0.30000000  1
  Co  Co2  1  0.40000000  0.70000000  0.50000000  1
  Co  Co2  1  0.40000000  0.70000000  0.70000000  1
  Co  Co2  1  0.40000000  0.70000000  0.90000000  1
  Co  Co2  1  0.40000000  0.90000000  0.10000000  1
  Co  Co2  1  0.40000000  0.90000000  0.30000000  1
  Co  Co2  1  0.40000000  0.90000000  0.50000000  1
  Co  Co2  1  0.40000000  0.90000000  0.70000000  1
  Co  Co2  1  0.40000000  0.90000000  0.90000000  1
  Co  Co2  1  0.60000000  0.10000000  0.10000000  1
  Co  Co2  1  0.60000000  0.10000000  0.30000000  1
  Co  Co2  1  0.60000000  0.10000000  0.50000000  1
  Co  Co2  1  0.60000000  0.10000000  0.70000000  1
  Co  Co2  1  0.60000000  0.10000000  0.90000000  1
  Co  Co2  1  0.60000000  0.30000000  0.10000000  1
  Co  Co2  1  0.60000000  0.30000000  0.30000000  1
  Co  Co2  1  0.60000000  0.30000000  0.50000000  1
  Co  Co2  1  0.60000000  0.30000000  0.70000000  1
  Co  Co2  1  0.60000000  0.30000000  0.90000000  1
  Co  Co2  1  0.60000000  0.50000000  0.10000000  1
  Co  Co2  1  0.60000000  0.50000000  0.30000000  1
  Co  Co2  1  0.60000000  0.50000000  0.50000000  1
  Co  Co2  1  0.60000000  0.50000000  0.70000000  1
  Co  Co2  1  0.60000000  0.50000000  0.90000000  1
  Co  Co2  1  0.60000000  0.70000000  0.10000000  1
  Co  Co2  1  0.60000000  0.70000000  0.30000000  1
  Co  Co2  1  0.60000000  0.70000000  0.50000000  1
  Co  Co2  1  0.60000000  0.70000000  0.70000000  1
  Co  Co2  1  0.60000000  0.70000000  0.90000000  1
  Co  Co2  1  0.60000000  0.90000000  0.10000000  1
  Co  Co2  1  0.60000000  0.90000000  0.30000000  1
  Co  Co2  1  0.60000000  0.90000000  0.50000000  1
  Co  Co2  1  0.60000000  0.90000000  0.70000000  1
  Co  Co2  1  0.60000000  0.90000000  0.90000000  1
  Co  Co2  1  0.80000000  0.10000000  0.10000000  1
  Co  Co2  1  0.80000000  0.10000000  0.30000000  1
  Co  Co2  1  0.80000000  0.10000000  0.50000000  1
  Co  Co2  1  0.80000000  0.10000000  0.70000000  1
  Co  Co2  1  0.80000000  0.10000000  0.90000000  1
  Co  Co2  1  0.80000000  0.30000000  0.10000000  1
  Co  Co2  1  0.80000000  0.30000000  0.30000000  1
  Co  Co2  1  0.80000000  0.30000000  0.50000000  1
  Co  Co2  1  0.80000000  0.30000000  0.70000000  1
  Co  Co2  1  0.80000000  0.30000000  0.90000000  1
  Co  Co2  1  0.80000000  0.50000000  0.10000000  1
  Co  Co2  1  0.80000000  0.50000000  0.30000000  1
  Co  Co2  1  0.80000000  0.50000000  0.50000000  1
  Co  Co2  1  0.80000000  0.50000000  0.70000000  1
  Co  Co2  1  0.80000000  0.50000000  0.90000000  1
  Co  Co2  1  0.80000000  0.70000000  0.10000000  1
  Co  Co2  1  0.80000000  0.70000000  0.30000000  1
  Co  Co2  1  0.80000000  0.70000000  0.50000000  1
  Co  Co2  1  0.80000000  0.70000000  0.70000000  1
  Co  Co2  1  0.80000000  0.70000000  0.90000000  1
  Co  Co2  1  0.80000000  0.90000000  0.10000000  1
  Co  Co2  1  0.80000000  0.90000000  0.30000000  1
  Co  Co2  1  0.80000000  0.90000000  0.50000000  1
  Co  Co2  1  0.80000000  0.90000000  0.70000000  1
  Co  Co2  1  0.80000000  0.90000000  0.90000000  1
