# generated using pymatgen
data_TaCo2
_symmetry_space_group_name_H-M   'P 1'
_cell_length_a   19.36000000
_cell_length_b   19.36000000
_cell_length_c   31.44000000
_cell_angle_alpha   90.00000000
_cell_angle_beta   90.00000000
_cell_angle_gamma   90.00000000
_symmetry_Int_Tables_number   1
_chemical_formula_structural   TaCo2
_chemical_formula_sum   'Ta256 Co512'
_cell_volume   11784.01382400
_cell_formula_units_Z   256
loop_
 _symmetry_equiv_pos_site_id
 _symmetry_equiv_pos_as_xyz
  1  'x, y, z'
loop_
 _atom_site_type_symbol
 _atom_site_label
 _atom_site_symmetry_multiplicity
 _atom_site_fract_x
 _atom_site_fract_y
 _atom_site_fract_z
 _atom_site_occupancy
  Ta  Ta1  1  0.08333333  0.16666667  0.01670125  1
  Ta  Ta1  1  0.08333333  0.16666667  0.26670125  1
  Ta  Ta1  1  0.08333333  0.16666667  0.51670125  1
  Ta  Ta1  1  0.08333333  0.16666667  0.76670125  1
  Ta  Ta1  1  0.08333333  0.41666667  0.01670125  1
  Ta  Ta1  1  0.08333333  0.41666667  0.26670125  1
  Ta  Ta1  1  0.08333333  0.41666667  0.51670125  1
  Ta  Ta1  1  0.08333333  0.41666667  0.76670125  1
  Ta  Ta1  1  0.08333333  0.66666667  0.01670125  1
  Ta  Ta1  1  0.08333333  0.66666667  0.26670125  1
  Ta  Ta1  1  0.08333333  0.66666667  0.51670125  1
  Ta  Ta1  1  0.08333333  0.66666667  0.76670125  1
  Ta  Ta1  1  0.08333333  0.91666667  0.01670125  1
  Ta  Ta1  1  0.08333333  0.91666667  0.26670125  1
  Ta  Ta1  1  0.08333333  0.91666667  0.51670125  1
  Ta  Ta1  1  0.08333333  0.91666667  0.76670125  1
  Ta  Ta1  1  0.33333333  0.16666667  0.01670125  1
  Ta  Ta1  1  0.33333333  0.16666667  0.26670125  1
  Ta  Ta1  1  0.33333333  0.16666667  0.51670125  1
  Ta  Ta1  1  0.33333333  0.16666667  0.76670125  1
  Ta  Ta1  1  0.33333333  0.41666667  0.01670125  1
  Ta  Ta1  1  0.33333333  0.41666667  0.26670125  1
  Ta  Ta1  1  0.33333333  0.41666667  0.51670125  1
  Ta  Ta1  1  0.33333333  0.41666667  0.76670125  1
  Ta  Ta1  1  0.33333333  0.66666667  0.01670125  1
  Ta  Ta1  1  0.33333333  0.66666667  0.26670125  1
  Ta  Ta1  1  0.33333333  0.66666667  0.51670125  1
  Ta  Ta1  1  0.33333333  0.66666667  0.76670125  1
  Ta  Ta1  1  0.33333333  0.91666667  0.01670125  1
  Ta  Ta1  1  0.33333333  0.91666667  0.26670125  1
  Ta  Ta1  1  0.33333333  0.91666667  0.51670125  1
  Ta  Ta1  1  0.33333333  0.91666667  0.76670125  1
  Ta  Ta1  1  0.58333333  0.16666667  0.01670125  1
  Ta  Ta1  1  0.58333333  0.16666667  0.26670125  1
  Ta  Ta1  1  0.58333333  0.16666667  0.51670125  1
  Ta  Ta1  1  0.58333333  0.16666667  0.76670125  1
  Ta  Ta1  1  0.58333333  0.41666667  0.01670125  1
  Ta  Ta1  1  0.58333333  0.41666667  0.26670125  1
  Ta  Ta1  1  0.58333333  0.41666667  0.51670125  1
  Ta  Ta1  1  0.58333333  0.41666667  0.76670125  1
  Ta  Ta1  1  0.58333333  0.66666667  0.01670125  1
  Ta  Ta1  1  0.58333333  0.66666667  0.26670125  1
  Ta  Ta1  1  0.58333333  0.66666667  0.51670125  1
  Ta  Ta1  1  0.58333333  0.66666667  0.76670125  1
  Ta  Ta1  1  0.58333333  0.91666667  0.01670125  1
  Ta  Ta1  1  0.58333333  0.91666667  0.26670125  1
  Ta  Ta1  1  0.58333333  0.91666667  0.51670125  1
  Ta  Ta1  1  0.58333333  0.91666667  0.76670125  1
  Ta  Ta1  1  0.83333333  0.16666667  0.01670125  1
  Ta  Ta1  1  0.83333333  0.16666667  0.26670125  1
  Ta  Ta1  1  0.83333333  0.16666667  0.51670125  1
  Ta  Ta1  1  0.83333333  0.16666667  0.76670125  1
  Ta  Ta1  1  0.83333333  0.41666667  0.01670125  1
  Ta  Ta1  1  0.83333333  0.41666667  0.26670125  1
  Ta  Ta1  1  0.83333333  0.41666667  0.51670125  1
  Ta  Ta1  1  0.83333333  0.41666667  0.76670125  1
  Ta  Ta1  1  0.83333333  0.66666667  0.01670125  1
  Ta  Ta1  1  0.83333333  0.66666667  0.26670125  1
  Ta  Ta1  1  0.83333333  0.66666667  0.51670125  1
  Ta  Ta1  1  0.83333333  0.66666667  0.76670125  1
  Ta  Ta1  1  0.83333333  0.91666667  0.01670125  1
  Ta  Ta1  1  0.83333333  0.91666667  0.26670125  1
  Ta  Ta1  1  0.83333333  0.91666667  0.51670125  1
  Ta  Ta1  1  0.83333333  0.91666667  0.76670125  1
  Ta  Ta1  1  0.16666667  0.08333333  0.23329875  1
  Ta  Ta1  1  0.16666667  0.08333333  0.48329875  1
  Ta  Ta1  1  0.16666667  0.08333333  0.73329875  1
  Ta  Ta1  1  0.16666667  0.08333333  0.98329875  1
  Ta  Ta1  1  0.16666667  0.33333333  0.23329875  1
  Ta  Ta1  1  0.16666667  0.33333333  0.48329875  1
  Ta  Ta1  1  0.16666667  0.33333333  0.73329875  1
  Ta  Ta1  1  0.16666667  0.33333333  0.98329875  1
  Ta  Ta1  1  0.16666667  0.58333333  0.23329875  1
  Ta  Ta1  1  0.16666667  0.58333333  0.48329875  1
  Ta  Ta1  1  0.16666667  0.58333333  0.73329875  1
  Ta  Ta1  1  0.16666667  0.58333333  0.98329875  1
  Ta  Ta1  1  0.16666667  0.83333333  0.23329875  1
  Ta  Ta1  1  0.16666667  0.83333333  0.48329875  1
  Ta  Ta1  1  0.16666667  0.83333333  0.73329875  1
  Ta  Ta1  1  0.16666667  0.83333333  0.98329875  1
  Ta  Ta1  1  0.41666667  0.08333333  0.23329875  1
  Ta  Ta1  1  0.41666667  0.08333333  0.48329875  1
  Ta  Ta1  1  0.41666667  0.08333333  0.73329875  1
  Ta  Ta1  1  0.41666667  0.08333333  0.98329875  1
  Ta  Ta1  1  0.41666667  0.33333333  0.23329875  1
  Ta  Ta1  1  0.41666667  0.33333333  0.48329875  1
  Ta  Ta1  1  0.41666667  0.33333333  0.73329875  1
  Ta  Ta1  1  0.41666667  0.33333333  0.98329875  1
  Ta  Ta1  1  0.41666667  0.58333333  0.23329875  1
  Ta  Ta1  1  0.41666667  0.58333333  0.48329875  1
  Ta  Ta1  1  0.41666667  0.58333333  0.73329875  1
  Ta  Ta1  1  0.41666667  0.58333333  0.98329875  1
  Ta  Ta1  1  0.41666667  0.83333333  0.23329875  1
  Ta  Ta1  1  0.41666667  0.83333333  0.48329875  1
  Ta  Ta1  1  0.41666667  0.83333333  0.73329875  1
  Ta  Ta1  1  0.41666667  0.83333333  0.98329875  1
  Ta  Ta1  1  0.66666667  0.08333333  0.23329875  1
  Ta  Ta1  1  0.66666667  0.08333333  0.48329875  1
  Ta  Ta1  1  0.66666667  0.08333333  0.73329875  1
  Ta  Ta1  1  0.66666667  0.08333333  0.98329875  1
  Ta  Ta1  1  0.66666667  0.33333333  0.23329875  1
  Ta  Ta1  1  0.66666667  0.33333333  0.48329875  1
  Ta  Ta1  1  0.66666667  0.33333333  0.73329875  1
  Ta  Ta1  1  0.66666667  0.33333333  0.98329875  1
  Ta  Ta1  1  0.66666667  0.58333333  0.23329875  1
  Ta  Ta1  1  0.66666667  0.58333333  0.48329875  1
  Ta  Ta1  1  0.66666667  0.58333333  0.73329875  1
  Ta  Ta1  1  0.66666667  0.58333333  0.98329875  1
  Ta  Ta1  1  0.66666667  0.83333333  0.23329875  1
  Ta  Ta1  1  0.66666667  0.83333333  0.48329875  1
  Ta  Ta1  1  0.66666667  0.83333333  0.73329875  1
  Ta  Ta1  1  0.66666667  0.83333333  0.98329875  1
  Ta  Ta1  1  0.91666667  0.08333333  0.23329875  1
  Ta  Ta1  1  0.91666667  0.08333333  0.48329875  1
  Ta  Ta1  1  0.91666667  0.08333333  0.73329875  1
  Ta  Ta1  1  0.91666667  0.08333333  0.98329875  1
  Ta  Ta1  1  0.91666667  0.33333333  0.23329875  1
  Ta  Ta1  1  0.91666667  0.33333333  0.48329875  1
  Ta  Ta1  1  0.91666667  0.33333333  0.73329875  1
  Ta  Ta1  1  0.91666667  0.33333333  0.98329875  1
  Ta  Ta1  1  0.91666667  0.58333333  0.23329875  1
  Ta  Ta1  1  0.91666667  0.58333333  0.48329875  1
  Ta  Ta1  1  0.91666667  0.58333333  0.73329875  1
  Ta  Ta1  1  0.91666667  0.58333333  0.98329875  1
  Ta  Ta1  1  0.91666667  0.83333333  0.23329875  1
  Ta  Ta1  1  0.91666667  0.83333333  0.48329875  1
  Ta  Ta1  1  0.91666667  0.83333333  0.73329875  1
  Ta  Ta1  1  0.91666667  0.83333333  0.98329875  1
  Ta  Ta1  1  0.16666667  0.08333333  0.14170125  1
  Ta  Ta1  1  0.16666667  0.08333333  0.39170125  1
  Ta  Ta1  1  0.16666667  0.08333333  0.64170125  1
  Ta  Ta1  1  0.16666667  0.08333333  0.89170125  1
  Ta  Ta1  1  0.16666667  0.33333333  0.14170125  1
  Ta  Ta1  1  0.16666667  0.33333333  0.39170125  1
  Ta  Ta1  1  0.16666667  0.33333333  0.64170125  1
  Ta  Ta1  1  0.16666667  0.33333333  0.89170125  1
  Ta  Ta1  1  0.16666667  0.58333333  0.14170125  1
  Ta  Ta1  1  0.16666667  0.58333333  0.39170125  1
  Ta  Ta1  1  0.16666667  0.58333333  0.64170125  1
  Ta  Ta1  1  0.16666667  0.58333333  0.89170125  1
  Ta  Ta1  1  0.16666667  0.83333333  0.14170125  1
  Ta  Ta1  1  0.16666667  0.83333333  0.39170125  1
  Ta  Ta1  1  0.16666667  0.83333333  0.64170125  1
  Ta  Ta1  1  0.16666667  0.83333333  0.89170125  1
  Ta  Ta1  1  0.41666667  0.08333333  0.14170125  1
  Ta  Ta1  1  0.41666667  0.08333333  0.39170125  1
  Ta  Ta1  1  0.41666667  0.08333333  0.64170125  1
  Ta  Ta1  1  0.41666667  0.08333333  0.89170125  1
  Ta  Ta1  1  0.41666667  0.33333333  0.14170125  1
  Ta  Ta1  1  0.41666667  0.33333333  0.39170125  1
  Ta  Ta1  1  0.41666667  0.33333333  0.64170125  1
  Ta  Ta1  1  0.41666667  0.33333333  0.89170125  1
  Ta  Ta1  1  0.41666667  0.58333333  0.14170125  1
  Ta  Ta1  1  0.41666667  0.58333333  0.39170125  1
  Ta  Ta1  1  0.41666667  0.58333333  0.64170125  1
  Ta  Ta1  1  0.41666667  0.58333333  0.89170125  1
  Ta  Ta1  1  0.41666667  0.83333333  0.14170125  1
  Ta  Ta1  1  0.41666667  0.83333333  0.39170125  1
  Ta  Ta1  1  0.41666667  0.83333333  0.64170125  1
  Ta  Ta1  1  0.41666667  0.83333333  0.89170125  1
  Ta  Ta1  1  0.66666667  0.08333333  0.14170125  1
  Ta  Ta1  1  0.66666667  0.08333333  0.39170125  1
  Ta  Ta1  1  0.66666667  0.08333333  0.64170125  1
  Ta  Ta1  1  0.66666667  0.08333333  0.89170125  1
  Ta  Ta1  1  0.66666667  0.33333333  0.14170125  1
  Ta  Ta1  1  0.66666667  0.33333333  0.39170125  1
  Ta  Ta1  1  0.66666667  0.33333333  0.64170125  1
  Ta  Ta1  1  0.66666667  0.33333333  0.89170125  1
  Ta  Ta1  1  0.66666667  0.58333333  0.14170125  1
  Ta  Ta1  1  0.66666667  0.58333333  0.39170125  1
  Ta  Ta1  1  0.66666667  0.58333333  0.64170125  1
  Ta  Ta1  1  0.66666667  0.58333333  0.89170125  1
  Ta  Ta1  1  0.66666667  0.83333333  0.14170125  1
  Ta  Ta1  1  0.66666667  0.83333333  0.39170125  1
  Ta  Ta1  1  0.66666667  0.83333333  0.64170125  1
  Ta  Ta1  1  0.66666667  0.83333333  0.89170125  1
  Ta  Ta1  1  0.91666667  0.08333333  0.14170125  1
  Ta  Ta1  1  0.91666667  0.08333333  0.39170125  1
  Ta  Ta1  1  0.91666667  0.08333333  0.64170125  1
  Ta  Ta1  1  0.91666667  0.08333333  0.89170125  1
  Ta  Ta1  1  0.91666667  0.33333333  0.14170125  1
  Ta  Ta1  1  0.91666667  0.33333333  0.39170125  1
  Ta  Ta1  1  0.91666667  0.33333333  0.64170125  1
  Ta  Ta1  1  0.91666667  0.33333333  0.89170125  1
  Ta  Ta1  1  0.91666667  0.58333333  0.14170125  1
  Ta  Ta1  1  0.91666667  0.58333333  0.39170125  1
  Ta  Ta1  1  0.91666667  0.58333333  0.64170125  1
  Ta  Ta1  1  0.91666667  0.58333333  0.89170125  1
  Ta  Ta1  1  0.91666667  0.83333333  0.14170125  1
  Ta  Ta1  1  0.91666667  0.83333333  0.39170125  1
  Ta  Ta1  1  0.91666667  0.83333333  0.64170125  1
  Ta  Ta1  1  0.91666667  0.83333333  0.89170125  1
  Ta  Ta1  1  0.08333333  0.16666667  0.10829875  1
  Ta  Ta1  1  0.08333333  0.16666667  0.35829875  1
  Ta  Ta1  1  0.08333333  0.16666667  0.60829875  1
  Ta  Ta1  1  0.08333333  0.16666667  0.85829875  1
  Ta  Ta1  1  0.08333333  0.41666667  0.10829875  1
  Ta  Ta1  1  0.08333333  0.41666667  0.35829875  1
  Ta  Ta1  1  0.08333333  0.41666667  0.60829875  1
  Ta  Ta1  1  0.08333333  0.41666667  0.85829875  1
  Ta  Ta1  1  0.08333333  0.66666667  0.10829875  1
  Ta  Ta1  1  0.08333333  0.66666667  0.35829875  1
  Ta  Ta1  1  0.08333333  0.66666667  0.60829875  1
  Ta  Ta1  1  0.08333333  0.66666667  0.85829875  1
  Ta  Ta1  1  0.08333333  0.91666667  0.10829875  1
  Ta  Ta1  1  0.08333333  0.91666667  0.35829875  1
  Ta  Ta1  1  0.08333333  0.91666667  0.60829875  1
  Ta  Ta1  1  0.08333333  0.91666667  0.85829875  1
  Ta  Ta1  1  0.33333333  0.16666667  0.10829875  1
  Ta  Ta1  1  0.33333333  0.16666667  0.35829875  1
  Ta  Ta1  1  0.33333333  0.16666667  0.60829875  1
  Ta  Ta1  1  0.33333333  0.16666667  0.85829875  1
  Ta  Ta1  1  0.33333333  0.41666667  0.10829875  1
  Ta  Ta1  1  0.33333333  0.41666667  0.35829875  1
  Ta  Ta1  1  0.33333333  0.41666667  0.60829875  1
  Ta  Ta1  1  0.33333333  0.41666667  0.85829875  1
  Ta  Ta1  1  0.33333333  0.66666667  0.10829875  1
  Ta  Ta1  1  0.33333333  0.66666667  0.35829875  1
  Ta  Ta1  1  0.33333333  0.66666667  0.60829875  1
  Ta  Ta1  1  0.33333333  0.66666667  0.85829875  1
  Ta  Ta1  1  0.33333333  0.91666667  0.10829875  1
  Ta  Ta1  1  0.33333333  0.91666667  0.35829875  1
  Ta  Ta1  1  0.33333333  0.91666667  0.60829875  1
  Ta  Ta1  1  0.33333333  0.91666667  0.85829875  1
  Ta  Ta1  1  0.58333333  0.16666667  0.10829875  1
  Ta  Ta1  1  0.58333333  0.16666667  0.35829875  1
  Ta  Ta1  1  0.58333333  0.16666667  0.60829875  1
  Ta  Ta1  1  0.58333333  0.16666667  0.85829875  1
  Ta  Ta1  1  0.58333333  0.41666667  0.10829875  1
  Ta  Ta1  1  0.58333333  0.41666667  0.35829875  1
  Ta  Ta1  1  0.58333333  0.41666667  0.60829875  1
  Ta  Ta1  1  0.58333333  0.41666667  0.85829875  1
  Ta  Ta1  1  0.58333333  0.66666667  0.10829875  1
  Ta  Ta1  1  0.58333333  0.66666667  0.35829875  1
  Ta  Ta1  1  0.58333333  0.66666667  0.60829875  1
  Ta  Ta1  1  0.58333333  0.66666667  0.85829875  1
  Ta  Ta1  1  0.58333333  0.91666667  0.10829875  1
  Ta  Ta1  1  0.58333333  0.91666667  0.35829875  1
  Ta  Ta1  1  0.58333333  0.91666667  0.60829875  1
  Ta  Ta1  1  0.58333333  0.91666667  0.85829875  1
  Ta  Ta1  1  0.83333333  0.16666667  0.10829875  1
  Ta  Ta1  1  0.83333333  0.16666667  0.35829875  1
  Ta  Ta1  1  0.83333333  0.16666667  0.60829875  1
  Ta  Ta1  1  0.83333333  0.16666667  0.85829875  1
  Ta  Ta1  1  0.83333333  0.41666667  0.10829875  1
  Ta  Ta1  1  0.83333333  0.41666667  0.35829875  1
  Ta  Ta1  1  0.83333333  0.41666667  0.60829875  1
  Ta  Ta1  1  0.83333333  0.41666667  0.85829875  1
  Ta  Ta1  1  0.83333333  0.66666667  0.10829875  1
  Ta  Ta1  1  0.83333333  0.66666667  0.35829875  1
  Ta  Ta1  1  0.83333333  0.66666667  0.60829875  1
  Ta  Ta1  1  0.83333333  0.66666667  0.85829875  1
  Ta  Ta1  1  0.83333333  0.91666667  0.10829875  1
  Ta  Ta1  1  0.83333333  0.91666667  0.35829875  1
  Ta  Ta1  1  0.83333333  0.91666667  0.60829875  1
  Ta  Ta1  1  0.83333333  0.91666667  0.85829875  1
  Co  Co1  1  0.00000000  0.00000000  0.00000000  1
  Co  Co1  1  0.00000000  0.00000000  0.25000000  1
  Co  Co1  1  0.00000000  0.00000000  0.50000000  1
  Co  Co1  1  0.00000000  0.00000000  0.75000000  1
  Co  Co1  1  0.00000000  0.25000000  0.00000000  1
  Co  Co1  1  0.00000000  0.25000000  0.25000000  1
  Co  Co1  1  0.00000000  0.25000000  0.50000000  1
  Co  Co1  1  0.00000000  0.25000000  0.75000000  1
  Co  Co1  1  0.00000000  0.50000000  0.00000000  1
  Co  Co1  1  0.00000000  0.50000000  0.25000000  1
  Co  Co1  1  0.00000000  0.50000000  0.50000000  1
  Co  Co1  1  0.00000000  0.50000000  0.75000000  1
  Co  Co1  1  0.00000000  0.75000000  0.00000000  1
  Co  Co1  1  0.00000000  0.75000000  0.25000000  1
  Co  Co1  1  0.00000000  0.75000000  0.50000000  1
  Co  Co1  1  0.00000000  0.75000000  0.75000000  1
  Co  Co1  1  0.25000000  0.00000000  0.00000000  1
  Co  Co1  1  0.25000000  0.00000000  0.25000000  1
  Co  Co1  1  0.25000000  0.00000000  0.50000000  1
  Co  Co1  1  0.25000000  0.00000000  0.75000000  1
  Co  Co1  1  0.25000000  0.25000000  0.00000000  1
  Co  Co1  1  0.25000000  0.25000000  0.25000000  1
  Co  Co1  1  0.25000000  0.25000000  0.50000000  1
  Co  Co1  1  0.25000000  0.25000000  0.75000000  1
  Co  Co1  1  0.25000000  0.50000000  0.00000000  1
  Co  Co1  1  0.25000000  0.50000000  0.25000000  1
  Co  Co1  1  0.25000000  0.50000000  0.50000000  1
  Co  Co1  1  0.25000000  0.50000000  0.75000000  1
  Co  Co1  1  0.25000000  0.75000000  0.00000000  1
  Co  Co1  1  0.25000000  0.75000000  0.25000000  1
  Co  Co1  1  0.25000000  0.75000000  0.50000000  1
  Co  Co1  1  0.25000000  0.75000000  0.75000000  1
  Co  Co1  1  0.50000000  0.00000000  0.00000000  1
  Co  Co1  1  0.50000000  0.00000000  0.25000000  1
  Co  Co1  1  0.50000000  0.00000000  0.50000000  1
  Co  Co1  1  0.50000000  0.00000000  0.75000000  1
  Co  Co1  1  0.50000000  0.25000000  0.00000000  1
  Co  Co1  1  0.50000000  0.25000000  0.25000000  1
  Co  Co1  1  0.50000000  0.25000000  0.50000000  1
  Co  Co1  1  0.50000000  0.25000000  0.75000000  1
  Co  Co1  1  0.50000000  0.50000000  0.00000000  1
  Co  Co1  1  0.50000000  0.50000000  0.25000000  1
  Co  Co1  1  0.50000000  0.50000000  0.50000000  1
  Co  Co1  1  0.50000000  0.50000000  0.75000000  1
  Co  Co1  1  0.50000000  0.75000000  0.00000000  1
  Co  Co1  1  0.50000000  0.75000000  0.25000000  1
  Co  Co1  1  0.50000000  0.75000000  0.50000000  1
  Co  Co1  1  0.50000000  0.75000000  0.75000000  1
  Co  Co1  1  0.75000000  0.00000000  0.00000000  1
  Co  Co1  1  0.75000000  0.00000000  0.25000000  1
  Co  Co1  1  0.75000000  0.00000000  0.50000000  1
  Co  Co1  1  0.75000000  0.00000000  0.75000000  1
  Co  Co1  1  0.75000000  0.25000000  0.00000000  1
  Co  Co1  1  0.75000000  0.25000000  0.25000000  1
  Co  Co1  1  0.75000000  0.25000000  0.50000000  1
  Co  Co1  1  0.75000000  0.25000000  0.75000000  1
  Co  Co1  1  0.75000000  0.50000000  0.00000000  1
  Co  Co1  1  0.75000000  0.50000000  0.25000000  1
  Co  Co1  1  0.75000000  0.50000000  0.50000000  1
  Co  Co1  1  0.75000000  0.50000000  0.75000000  1
  Co  Co1  1  0.75000000  0.75000000  0.00000000  1
  Co  Co1  1  0.75000000  0.75000000  0.25000000  1
  Co  Co1  1  0.75000000  0.75000000  0.50000000  1
  Co  Co1  1  0.75000000  0.75000000  0.75000000  1
  Co  Co1  1  0.00000000  0.00000000  0.12500000  1
  Co  Co1  1  0.00000000  0.00000000  0.37500000  1
  Co  Co1  1  0.00000000  0.00000000  0.62500000  1
  Co  Co1  1  0.00000000  0.00000000  0.87500000  1
  Co  Co1  1  0.00000000  0.25000000  0.12500000  1
  Co  Co1  1  0.00000000  0.25000000  0.37500000  1
  Co  Co1  1  0.00000000  0.25000000  0.62500000  1
  Co  Co1  1  0.00000000  0.25000000  0.87500000  1
  Co  Co1  1  0.00000000  0.50000000  0.12500000  1
  Co  Co1  1  0.00000000  0.50000000  0.37500000  1
  Co  Co1  1  0.00000000  0.50000000  0.62500000  1
  Co  Co1  1  0.00000000  0.50000000  0.87500000  1
  Co  Co1  1  0.00000000  0.75000000  0.12500000  1
  Co  Co1  1  0.00000000  0.75000000  0.37500000  1
  Co  Co1  1  0.00000000  0.75000000  0.62500000  1
  Co  Co1  1  0.00000000  0.75000000  0.87500000  1
  Co  Co1  1  0.25000000  0.00000000  0.12500000  1
  Co  Co1  1  0.25000000  0.00000000  0.37500000  1
  Co  Co1  1  0.25000000  0.00000000  0.62500000  1
  Co  Co1  1  0.25000000  0.00000000  0.87500000  1
  Co  Co1  1  0.25000000  0.25000000  0.12500000  1
  Co  Co1  1  0.25000000  0.25000000  0.37500000  1
  Co  Co1  1  0.25000000  0.25000000  0.62500000  1
  Co  Co1  1  0.25000000  0.25000000  0.87500000  1
  Co  Co1  1  0.25000000  0.50000000  0.12500000  1
  Co  Co1  1  0.25000000  0.50000000  0.37500000  1
  Co  Co1  1  0.25000000  0.50000000  0.62500000  1
  Co  Co1  1  0.25000000  0.50000000  0.87500000  1
  Co  Co1  1  0.25000000  0.75000000  0.12500000  1
  Co  Co1  1  0.25000000  0.75000000  0.37500000  1
  Co  Co1  1  0.25000000  0.75000000  0.62500000  1
  Co  Co1  1  0.25000000  0.75000000  0.87500000  1
  Co  Co1  1  0.50000000  0.00000000  0.12500000  1
  Co  Co1  1  0.50000000  0.00000000  0.37500000  1
  Co  Co1  1  0.50000000  0.00000000  0.62500000  1
  Co  Co1  1  0.50000000  0.00000000  0.87500000  1
  Co  Co1  1  0.50000000  0.25000000  0.12500000  1
  Co  Co1  1  0.50000000  0.25000000  0.37500000  1
  Co  Co1  1  0.50000000  0.25000000  0.62500000  1
  Co  Co1  1  0.50000000  0.25000000  0.87500000  1
  Co  Co1  1  0.50000000  0.50000000  0.12500000  1
  Co  Co1  1  0.50000000  0.50000000  0.37500000  1
  Co  Co1  1  0.50000000  0.50000000  0.62500000  1
  Co  Co1  1  0.50000000  0.50000000  0.87500000  1
  Co  Co1  1  0.50000000  0.75000000  0.12500000  1
  Co  Co1  1  0.50000000  0.75000000  0.37500000  1
  Co  Co1  1  0.50000000  0.75000000  0.62500000  1
  Co  Co1  1  0.50000000  0.75000000  0.87500000  1
  Co  Co1  1  0.75000000  0.00000000  0.12500000  1
  Co  Co1  1  0.75000000  0.00000000  0.37500000  1
  Co  Co1  1  0.75000000  0.00000000  0.62500000  1
  Co  Co1  1  0.75000000  0.00000000  0.87500000  1
  Co  Co1  1  0.75000000  0.25000000  0.12500000  1
  Co  Co1  1  0.75000000  0.25000000  0.37500000  1
  Co  Co1  1  0.75000000  0.25000000  0.62500000  1
  Co  Co1  1  0.75000000  0.25000000  0.87500000  1
  Co  Co1  1  0.75000000  0.50000000  0.12500000  1
  Co  Co1  1  0.75000000  0.50000000  0.37500000  1
  Co  Co1  1  0.75000000  0.50000000  0.62500000  1
  Co  Co1  1  0.75000000  0.50000000  0.87500000  1
  Co  Co1  1  0.75000000  0.75000000  0.12500000  1
  Co  Co1  1  0.75000000  0.75000000  0.37500000  1
  Co  Co1  1  0.75000000  0.75000000  0.62500000  1
  Co  Co1  1  0.75000000  0.75000000  0.87500000  1
  Co  Co2  1  0.08494200  0.04247100  0.06250000  1
  Co  Co2  1  0.08494200  0.04247100  0.31250000  1
  Co  Co2  1  0.08494200  0.04247100  0.56250000  1
  Co  Co2  1  0.08494200  0.04247100  0.81250000  1
  Co  Co2  1  0.08494200  0.29247100  0.06250000  1
  Co  Co2  1  0.08494200  0.29247100  0.31250000  1
  Co  Co2  1  0.08494200  0.29247100  0.56250000  1
  Co  Co2  1  0.08494200  0.29247100  0.81250000  1
  Co  Co2  1  0.08494200  0.54247100  0.06250000  1
  Co  Co2  1  0.08494200  0.54247100  0.31250000  1
  Co  Co2  1  0.08494200  0.54247100  0.56250000  1
  Co  Co2  1  0.08494200  0.54247100  0.81250000  1
  Co  Co2  1  0.08494200  0.79247100  0.06250000  1
  Co  Co2  1  0.08494200  0.79247100  0.31250000  1
  Co  Co2  1  0.08494200  0.79247100  0.56250000  1
  Co  Co2  1  0.08494200  0.79247100  0.81250000  1
  Co  Co2  1  0.33494200  0.04247100  0.06250000  1
  Co  Co2  1  0.33494200  0.04247100  0.31250000  1
  Co  Co2  1  0.33494200  0.04247100  0.56250000  1
  Co  Co2  1  0.33494200  0.04247100  0.81250000  1
  Co  Co2  1  0.33494200  0.29247100  0.06250000  1
  Co  Co2  1  0.33494200  0.29247100  0.31250000  1
  Co  Co2  1  0.33494200  0.29247100  0.56250000  1
  Co  Co2  1  0.33494200  0.29247100  0.81250000  1
  Co  Co2  1  0.33494200  0.54247100  0.06250000  1
  Co  Co2  1  0.33494200  0.54247100  0.31250000  1
  Co  Co2  1  0.33494200  0.54247100  0.56250000  1
  Co  Co2  1  0.33494200  0.54247100  0.81250000  1
  Co  Co2  1  0.33494200  0.79247100  0.06250000  1
  Co  Co2  1  0.33494200  0.79247100  0.31250000  1
  Co  Co2  1  0.33494200  0.79247100  0.56250000  1
  Co  Co2  1  0.33494200  0.79247100  0.81250000  1
  Co  Co2  1  0.58494200  0.04247100  0.06250000  1
  Co  Co2  1  0.58494200  0.04247100  0.31250000  1
  Co  Co2  1  0.58494200  0.04247100  0.56250000  1
  Co  Co2  1  0.58494200  0.04247100  0.81250000  1
  Co  Co2  1  0.58494200  0.29247100  0.06250000  1
  Co  Co2  1  0.58494200  0.29247100  0.31250000  1
  Co  Co2  1  0.58494200  0.29247100  0.56250000  1
  Co  Co2  1  0.58494200  0.29247100  0.81250000  1
  Co  Co2  1  0.58494200  0.54247100  0.06250000  1
  Co  Co2  1  0.58494200  0.54247100  0.31250000  1
  Co  Co2  1  0.58494200  0.54247100  0.56250000  1
  Co  Co2  1  0.58494200  0.54247100  0.81250000  1
  Co  Co2  1  0.58494200  0.79247100  0.06250000  1
  Co  Co2  1  0.58494200  0.79247100  0.31250000  1
  Co  Co2  1  0.58494200  0.79247100  0.56250000  1
  Co  Co2  1  0.58494200  0.79247100  0.81250000  1
  Co  Co2  1  0.83494200  0.04247100  0.06250000  1
  Co  Co2  1  0.83494200  0.04247100  0.31250000  1
  Co  Co2  1  0.83494200  0.04247100  0.56250000  1
  Co  Co2  1  0.83494200  0.04247100  0.81250000  1
  Co  Co2  1  0.83494200  0.29247100  0.06250000  1
  Co  Co2  1  0.83494200  0.29247100  0.31250000  1
  Co  Co2  1  0.83494200  0.29247100  0.56250000  1
  Co  Co2  1  0.83494200  0.29247100  0.81250000  1
  Co  Co2  1  0.83494200  0.54247100  0.06250000  1
  Co  Co2  1  0.83494200  0.54247100  0.31250000  1
  Co  Co2  1  0.83494200  0.54247100  0.56250000  1
  Co  Co2  1  0.83494200  0.54247100  0.81250000  1
  Co  Co2  1  0.83494200  0.79247100  0.06250000  1
  Co  Co2  1  0.83494200  0.79247100  0.31250000  1
  Co  Co2  1  0.83494200  0.79247100  0.56250000  1
  Co  Co2  1  0.83494200  0.79247100  0.81250000  1
  Co  Co2  1  0.16505800  0.20752900  0.18750000  1
  Co  Co2  1  0.16505800  0.20752900  0.43750000  1
  Co  Co2  1  0.16505800  0.20752900  0.68750000  1
  Co  Co2  1  0.16505800  0.20752900  0.93750000  1
  Co  Co2  1  0.16505800  0.45752900  0.18750000  1
  Co  Co2  1  0.16505800  0.45752900  0.43750000  1
  Co  Co2  1  0.16505800  0.45752900  0.68750000  1
  Co  Co2  1  0.16505800  0.45752900  0.93750000  1
  Co  Co2  1  0.16505800  0.70752900  0.18750000  1
  Co  Co2  1  0.16505800  0.70752900  0.43750000  1
  Co  Co2  1  0.16505800  0.70752900  0.68750000  1
  Co  Co2  1  0.16505800  0.70752900  0.93750000  1
  Co  Co2  1  0.16505800  0.95752900  0.18750000  1
  Co  Co2  1  0.16505800  0.95752900  0.43750000  1
  Co  Co2  1  0.16505800  0.95752900  0.68750000  1
  Co  Co2  1  0.16505800  0.95752900  0.93750000  1
  Co  Co2  1  0.41505800  0.20752900  0.18750000  1
  Co  Co2  1  0.41505800  0.20752900  0.43750000  1
  Co  Co2  1  0.41505800  0.20752900  0.68750000  1
  Co  Co2  1  0.41505800  0.20752900  0.93750000  1
  Co  Co2  1  0.41505800  0.45752900  0.18750000  1
  Co  Co2  1  0.41505800  0.45752900  0.43750000  1
  Co  Co2  1  0.41505800  0.45752900  0.68750000  1
  Co  Co2  1  0.41505800  0.45752900  0.93750000  1
  Co  Co2  1  0.41505800  0.70752900  0.18750000  1
  Co  Co2  1  0.41505800  0.70752900  0.43750000  1
  Co  Co2  1  0.41505800  0.70752900  0.68750000  1
  Co  Co2  1  0.41505800  0.70752900  0.93750000  1
  Co  Co2  1  0.41505800  0.95752900  0.18750000  1
  Co  Co2  1  0.41505800  0.95752900  0.43750000  1
  Co  Co2  1  0.41505800  0.95752900  0.68750000  1
  Co  Co2  1  0.41505800  0.95752900  0.93750000  1
  Co  Co2  1  0.66505800  0.20752900  0.18750000  1
  Co  Co2  1  0.66505800  0.20752900  0.43750000  1
  Co  Co2  1  0.66505800  0.20752900  0.68750000  1
  Co  Co2  1  0.66505800  0.20752900  0.93750000  1
  Co  Co2  1  0.66505800  0.45752900  0.18750000  1
  Co  Co2  1  0.66505800  0.45752900  0.43750000  1
  Co  Co2  1  0.66505800  0.45752900  0.68750000  1
  Co  Co2  1  0.66505800  0.45752900  0.93750000  1
  Co  Co2  1  0.66505800  0.70752900  0.18750000  1
  Co  Co2  1  0.66505800  0.70752900  0.43750000  1
  Co  Co2  1  0.66505800  0.70752900  0.68750000  1
  Co  Co2  1  0.66505800  0.70752900  0.93750000  1
  Co  Co2  1  0.66505800  0.95752900  0.18750000  1
  Co  Co2  1  0.66505800  0.95752900  0.43750000  1
  Co  Co2  1  0.66505800  0.95752900  0.68750000  1
  Co  Co2  1  0.66505800  0.95752900  0.93750000  1
  Co  Co2  1  0.91505800  0.20752900  0.18750000  1
  Co  Co2  1  0.91505800  0.20752900  0.43750000  1
  Co  Co2  1  0.91505800  0.20752900  0.68750000  1
  Co  Co2  1  0.91505800  0.20752900  0.93750000  1
  Co  Co2  1  0.91505800  0.45752900  0.18750000  1
  Co  Co2  1  0.91505800  0.45752900  0.43750000  1
  Co  Co2  1  0.91505800  0.45752900  0.68750000  1
  Co  Co2  1  0.91505800  0.45752900  0.93750000  1
  Co  Co2  1  0.91505800  0.70752900  0.18750000  1
  Co  Co2  1  0.91505800  0.70752900  0.43750000  1
  Co  Co2  1  0.91505800  0.70752900  0.68750000  1
  Co  Co2  1  0.91505800  0.70752900  0.93750000  1
  Co  Co2  1  0.91505800  0.95752900  0.18750000  1
  Co  Co2  1  0.91505800  0.95752900  0.43750000  1
  Co  Co2  1  0.91505800  0.95752900  0.68750000  1
  Co  Co2  1  0.91505800  0.95752900  0.93750000  1
  Co  Co2  1  0.20752900  0.04247100  0.06250000  1
  Co  Co2  1  0.20752900  0.04247100  0.31250000  1
  Co  Co2  1  0.20752900  0.04247100  0.56250000  1
  Co  Co2  1  0.20752900  0.04247100  0.81250000  1
  Co  Co2  1  0.20752900  0.29247100  0.06250000  1
  Co  Co2  1  0.20752900  0.29247100  0.31250000  1
  Co  Co2  1  0.20752900  0.29247100  0.56250000  1
  Co  Co2  1  0.20752900  0.29247100  0.81250000  1
  Co  Co2  1  0.20752900  0.54247100  0.06250000  1
  Co  Co2  1  0.20752900  0.54247100  0.31250000  1
  Co  Co2  1  0.20752900  0.54247100  0.56250000  1
  Co  Co2  1  0.20752900  0.54247100  0.81250000  1
  Co  Co2  1  0.20752900  0.79247100  0.06250000  1
  Co  Co2  1  0.20752900  0.79247100  0.31250000  1
  Co  Co2  1  0.20752900  0.79247100  0.56250000  1
  Co  Co2  1  0.20752900  0.79247100  0.81250000  1
  Co  Co2  1  0.45752900  0.04247100  0.06250000  1
  Co  Co2  1  0.45752900  0.04247100  0.31250000  1
  Co  Co2  1  0.45752900  0.04247100  0.56250000  1
  Co  Co2  1  0.45752900  0.04247100  0.81250000  1
  Co  Co2  1  0.45752900  0.29247100  0.06250000  1
  Co  Co2  1  0.45752900  0.29247100  0.31250000  1
  Co  Co2  1  0.45752900  0.29247100  0.56250000  1
  Co  Co2  1  0.45752900  0.29247100  0.81250000  1
  Co  Co2  1  0.45752900  0.54247100  0.06250000  1
  Co  Co2  1  0.45752900  0.54247100  0.31250000  1
  Co  Co2  1  0.45752900  0.54247100  0.56250000  1
  Co  Co2  1  0.45752900  0.54247100  0.81250000  1
  Co  Co2  1  0.45752900  0.79247100  0.06250000  1
  Co  Co2  1  0.45752900  0.79247100  0.31250000  1
  Co  Co2  1  0.45752900  0.79247100  0.56250000  1
  Co  Co2  1  0.45752900  0.79247100  0.81250000  1
  Co  Co2  1  0.70752900  0.04247100  0.06250000  1
  Co  Co2  1  0.70752900  0.04247100  0.31250000  1
  Co  Co2  1  0.70752900  0.04247100  0.56250000  1
  Co  Co2  1  0.70752900  0.04247100  0.81250000  1
  Co  Co2  1  0.70752900  0.29247100  0.06250000  1
  Co  Co2  1  0.70752900  0.29247100  0.31250000  1
  Co  Co2  1  0.70752900  0.29247100  0.56250000  1
  Co  Co2  1  0.70752900  0.29247100  0.81250000  1
  Co  Co2  1  0.70752900  0.54247100  0.06250000  1
  Co  Co2  1  0.70752900  0.54247100  0.31250000  1
  Co  Co2  1  0.70752900  0.54247100  0.56250000  1
  Co  Co2  1  0.70752900  0.54247100  0.81250000  1
  Co  Co2  1  0.70752900  0.79247100  0.06250000  1
  Co  Co2  1  0.70752900  0.79247100  0.31250000  1
  Co  Co2  1  0.70752900  0.79247100  0.56250000  1
  Co  Co2  1  0.70752900  0.79247100  0.81250000  1
  Co  Co2  1  0.95752900  0.04247100  0.06250000  1
  Co  Co2  1  0.95752900  0.04247100  0.31250000  1
  Co  Co2  1  0.95752900  0.04247100  0.56250000  1
  Co  Co2  1  0.95752900  0.04247100  0.81250000  1
  Co  Co2  1  0.95752900  0.29247100  0.06250000  1
  Co  Co2  1  0.95752900  0.29247100  0.31250000  1
  Co  Co2  1  0.95752900  0.29247100  0.56250000  1
  Co  Co2  1  0.95752900  0.29247100  0.81250000  1
  Co  Co2  1  0.95752900  0.54247100  0.06250000  1
  Co  Co2  1  0.95752900  0.54247100  0.31250000  1
  Co  Co2  1  0.95752900  0.54247100  0.56250000  1
  Co  Co2  1  0.95752900  0.54247100  0.81250000  1
  Co  Co2  1  0.95752900  0.79247100  0.06250000  1
  Co  Co2  1  0.95752900  0.79247100  0.31250000  1
  Co  Co2  1  0.95752900  0.79247100  0.56250000  1
  Co  Co2  1  0.95752900  0.79247100  0.81250000  1
  Co  Co2  1  0.04247100  0.20752900  0.18750000  1
  Co  Co2  1  0.04247100  0.20752900  0.43750000  1
  Co  Co2  1  0.04247100  0.20752900  0.68750000  1
  Co  Co2  1  0.04247100  0.20752900  0.93750000  1
  Co  Co2  1  0.04247100  0.45752900  0.18750000  1
  Co  Co2  1  0.04247100  0.45752900  0.43750000  1
  Co  Co2  1  0.04247100  0.45752900  0.68750000  1
  Co  Co2  1  0.04247100  0.45752900  0.93750000  1
  Co  Co2  1  0.04247100  0.70752900  0.18750000  1
  Co  Co2  1  0.04247100  0.70752900  0.43750000  1
  Co  Co2  1  0.04247100  0.70752900  0.68750000  1
  Co  Co2  1  0.04247100  0.70752900  0.93750000  1
  Co  Co2  1  0.04247100  0.95752900  0.18750000  1
  Co  Co2  1  0.04247100  0.95752900  0.43750000  1
  Co  Co2  1  0.04247100  0.95752900  0.68750000  1
  Co  Co2  1  0.04247100  0.95752900  0.93750000  1
  Co  Co2  1  0.29247100  0.20752900  0.18750000  1
  Co  Co2  1  0.29247100  0.20752900  0.43750000  1
  Co  Co2  1  0.29247100  0.20752900  0.68750000  1
  Co  Co2  1  0.29247100  0.20752900  0.93750000  1
  Co  Co2  1  0.29247100  0.45752900  0.18750000  1
  Co  Co2  1  0.29247100  0.45752900  0.43750000  1
  Co  Co2  1  0.29247100  0.45752900  0.68750000  1
  Co  Co2  1  0.29247100  0.45752900  0.93750000  1
  Co  Co2  1  0.29247100  0.70752900  0.18750000  1
  Co  Co2  1  0.29247100  0.70752900  0.43750000  1
  Co  Co2  1  0.29247100  0.70752900  0.68750000  1
  Co  Co2  1  0.29247100  0.70752900  0.93750000  1
  Co  Co2  1  0.29247100  0.95752900  0.18750000  1
  Co  Co2  1  0.29247100  0.95752900  0.43750000  1
  Co  Co2  1  0.29247100  0.95752900  0.68750000  1
  Co  Co2  1  0.29247100  0.95752900  0.93750000  1
  Co  Co2  1  0.54247100  0.20752900  0.18750000  1
  Co  Co2  1  0.54247100  0.20752900  0.43750000  1
  Co  Co2  1  0.54247100  0.20752900  0.68750000  1
  Co  Co2  1  0.54247100  0.20752900  0.93750000  1
  Co  Co2  1  0.54247100  0.45752900  0.18750000  1
  Co  Co2  1  0.54247100  0.45752900  0.43750000  1
  Co  Co2  1  0.54247100  0.45752900  0.68750000  1
  Co  Co2  1  0.54247100  0.45752900  0.93750000  1
  Co  Co2  1  0.54247100  0.70752900  0.18750000  1
  Co  Co2  1  0.54247100  0.70752900  0.43750000  1
  Co  Co2  1  0.54247100  0.70752900  0.68750000  1
  Co  Co2  1  0.54247100  0.70752900  0.93750000  1
  Co  Co2  1  0.54247100  0.95752900  0.18750000  1
  Co  Co2  1  0.54247100  0.95752900  0.43750000  1
  Co  Co2  1  0.54247100  0.95752900  0.68750000  1
  Co  Co2  1  0.54247100  0.95752900  0.93750000  1
  Co  Co2  1  0.79247100  0.20752900  0.18750000  1
  Co  Co2  1  0.79247100  0.20752900  0.43750000  1
  Co  Co2  1  0.79247100  0.20752900  0.68750000  1
  Co  Co2  1  0.79247100  0.20752900  0.93750000  1
  Co  Co2  1  0.79247100  0.45752900  0.18750000  1
  Co  Co2  1  0.79247100  0.45752900  0.43750000  1
  Co  Co2  1  0.79247100  0.45752900  0.68750000  1
  Co  Co2  1  0.79247100  0.45752900  0.93750000  1
  Co  Co2  1  0.79247100  0.70752900  0.18750000  1
  Co  Co2  1  0.79247100  0.70752900  0.43750000  1
  Co  Co2  1  0.79247100  0.70752900  0.68750000  1
  Co  Co2  1  0.79247100  0.70752900  0.93750000  1
  Co  Co2  1  0.79247100  0.95752900  0.18750000  1
  Co  Co2  1  0.79247100  0.95752900  0.43750000  1
  Co  Co2  1  0.79247100  0.95752900  0.68750000  1
  Co  Co2  1  0.79247100  0.95752900  0.93750000  1
  Co  Co2  1  0.20752900  0.16505800  0.06250000  1
  Co  Co2  1  0.20752900  0.16505800  0.31250000  1
  Co  Co2  1  0.20752900  0.16505800  0.56250000  1
  Co  Co2  1  0.20752900  0.16505800  0.81250000  1
  Co  Co2  1  0.20752900  0.41505800  0.06250000  1
  Co  Co2  1  0.20752900  0.41505800  0.31250000  1
  Co  Co2  1  0.20752900  0.41505800  0.56250000  1
  Co  Co2  1  0.20752900  0.41505800  0.81250000  1
  Co  Co2  1  0.20752900  0.66505800  0.06250000  1
  Co  Co2  1  0.20752900  0.66505800  0.31250000  1
  Co  Co2  1  0.20752900  0.66505800  0.56250000  1
  Co  Co2  1  0.20752900  0.66505800  0.81250000  1
  Co  Co2  1  0.20752900  0.91505800  0.06250000  1
  Co  Co2  1  0.20752900  0.91505800  0.31250000  1
  Co  Co2  1  0.20752900  0.91505800  0.56250000  1
  Co  Co2  1  0.20752900  0.91505800  0.81250000  1
  Co  Co2  1  0.45752900  0.16505800  0.06250000  1
  Co  Co2  1  0.45752900  0.16505800  0.31250000  1
  Co  Co2  1  0.45752900  0.16505800  0.56250000  1
  Co  Co2  1  0.45752900  0.16505800  0.81250000  1
  Co  Co2  1  0.45752900  0.41505800  0.06250000  1
  Co  Co2  1  0.45752900  0.41505800  0.31250000  1
  Co  Co2  1  0.45752900  0.41505800  0.56250000  1
  Co  Co2  1  0.45752900  0.41505800  0.81250000  1
  Co  Co2  1  0.45752900  0.66505800  0.06250000  1
  Co  Co2  1  0.45752900  0.66505800  0.31250000  1
  Co  Co2  1  0.45752900  0.66505800  0.56250000  1
  Co  Co2  1  0.45752900  0.66505800  0.81250000  1
  Co  Co2  1  0.45752900  0.91505800  0.06250000  1
  Co  Co2  1  0.45752900  0.91505800  0.31250000  1
  Co  Co2  1  0.45752900  0.91505800  0.56250000  1
  Co  Co2  1  0.45752900  0.91505800  0.81250000  1
  Co  Co2  1  0.70752900  0.16505800  0.06250000  1
  Co  Co2  1  0.70752900  0.16505800  0.31250000  1
  Co  Co2  1  0.70752900  0.16505800  0.56250000  1
  Co  Co2  1  0.70752900  0.16505800  0.81250000  1
  Co  Co2  1  0.70752900  0.41505800  0.06250000  1
  Co  Co2  1  0.70752900  0.41505800  0.31250000  1
  Co  Co2  1  0.70752900  0.41505800  0.56250000  1
  Co  Co2  1  0.70752900  0.41505800  0.81250000  1
  Co  Co2  1  0.70752900  0.66505800  0.06250000  1
  Co  Co2  1  0.70752900  0.66505800  0.31250000  1
  Co  Co2  1  0.70752900  0.66505800  0.56250000  1
  Co  Co2  1  0.70752900  0.66505800  0.81250000  1
  Co  Co2  1  0.70752900  0.91505800  0.06250000  1
  Co  Co2  1  0.70752900  0.91505800  0.31250000  1
  Co  Co2  1  0.70752900  0.91505800  0.56250000  1
  Co  Co2  1  0.70752900  0.91505800  0.81250000  1
  Co  Co2  1  0.95752900  0.16505800  0.06250000  1
  Co  Co2  1  0.95752900  0.16505800  0.31250000  1
  Co  Co2  1  0.95752900  0.16505800  0.56250000  1
  Co  Co2  1  0.95752900  0.16505800  0.81250000  1
  Co  Co2  1  0.95752900  0.41505800  0.06250000  1
  Co  Co2  1  0.95752900  0.41505800  0.31250000  1
  Co  Co2  1  0.95752900  0.41505800  0.56250000  1
  Co  Co2  1  0.95752900  0.41505800  0.81250000  1
  Co  Co2  1  0.95752900  0.66505800  0.06250000  1
  Co  Co2  1  0.95752900  0.66505800  0.31250000  1
  Co  Co2  1  0.95752900  0.66505800  0.56250000  1
  Co  Co2  1  0.95752900  0.66505800  0.81250000  1
  Co  Co2  1  0.95752900  0.91505800  0.06250000  1
  Co  Co2  1  0.95752900  0.91505800  0.31250000  1
  Co  Co2  1  0.95752900  0.91505800  0.56250000  1
  Co  Co2  1  0.95752900  0.91505800  0.81250000  1
  Co  Co2  1  0.04247100  0.08494200  0.18750000  1
  Co  Co2  1  0.04247100  0.08494200  0.43750000  1
  Co  Co2  1  0.04247100  0.08494200  0.68750000  1
  Co  Co2  1  0.04247100  0.08494200  0.93750000  1
  Co  Co2  1  0.04247100  0.33494200  0.18750000  1
  Co  Co2  1  0.04247100  0.33494200  0.43750000  1
  Co  Co2  1  0.04247100  0.33494200  0.68750000  1
  Co  Co2  1  0.04247100  0.33494200  0.93750000  1
  Co  Co2  1  0.04247100  0.58494200  0.18750000  1
  Co  Co2  1  0.04247100  0.58494200  0.43750000  1
  Co  Co2  1  0.04247100  0.58494200  0.68750000  1
  Co  Co2  1  0.04247100  0.58494200  0.93750000  1
  Co  Co2  1  0.04247100  0.83494200  0.18750000  1
  Co  Co2  1  0.04247100  0.83494200  0.43750000  1
  Co  Co2  1  0.04247100  0.83494200  0.68750000  1
  Co  Co2  1  0.04247100  0.83494200  0.93750000  1
  Co  Co2  1  0.29247100  0.08494200  0.18750000  1
  Co  Co2  1  0.29247100  0.08494200  0.43750000  1
  Co  Co2  1  0.29247100  0.08494200  0.68750000  1
  Co  Co2  1  0.29247100  0.08494200  0.93750000  1
  Co  Co2  1  0.29247100  0.33494200  0.18750000  1
  Co  Co2  1  0.29247100  0.33494200  0.43750000  1
  Co  Co2  1  0.29247100  0.33494200  0.68750000  1
  Co  Co2  1  0.29247100  0.33494200  0.93750000  1
  Co  Co2  1  0.29247100  0.58494200  0.18750000  1
  Co  Co2  1  0.29247100  0.58494200  0.43750000  1
  Co  Co2  1  0.29247100  0.58494200  0.68750000  1
  Co  Co2  1  0.29247100  0.58494200  0.93750000  1
  Co  Co2  1  0.29247100  0.83494200  0.18750000  1
  Co  Co2  1  0.29247100  0.83494200  0.43750000  1
  Co  Co2  1  0.29247100  0.83494200  0.68750000  1
  Co  Co2  1  0.29247100  0.83494200  0.93750000  1
  Co  Co2  1  0.54247100  0.08494200  0.18750000  1
  Co  Co2  1  0.54247100  0.08494200  0.43750000  1
  Co  Co2  1  0.54247100  0.08494200  0.68750000  1
  Co  Co2  1  0.54247100  0.08494200  0.93750000  1
  Co  Co2  1  0.54247100  0.33494200  0.18750000  1
  Co  Co2  1  0.54247100  0.33494200  0.43750000  1
  Co  Co2  1  0.54247100  0.33494200  0.68750000  1
  Co  Co2  1  0.54247100  0.33494200  0.93750000  1
  Co  Co2  1  0.54247100  0.58494200  0.18750000  1
  Co  Co2  1  0.54247100  0.58494200  0.43750000  1
  Co  Co2  1  0.54247100  0.58494200  0.68750000  1
  Co  Co2  1  0.54247100  0.58494200  0.93750000  1
  Co  Co2  1  0.54247100  0.83494200  0.18750000  1
  Co  Co2  1  0.54247100  0.83494200  0.43750000  1
  Co  Co2  1  0.54247100  0.83494200  0.68750000  1
  Co  Co2  1  0.54247100  0.83494200  0.93750000  1
  Co  Co2  1  0.79247100  0.08494200  0.18750000  1
  Co  Co2  1  0.79247100  0.08494200  0.43750000  1
  Co  Co2  1  0.79247100  0.08494200  0.68750000  1
  Co  Co2  1  0.79247100  0.08494200  0.93750000  1
  Co  Co2  1  0.79247100  0.33494200  0.18750000  1
  Co  Co2  1  0.79247100  0.33494200  0.43750000  1
  Co  Co2  1  0.79247100  0.33494200  0.68750000  1
  Co  Co2  1  0.79247100  0.33494200  0.93750000  1
  Co  Co2  1  0.79247100  0.58494200  0.18750000  1
  Co  Co2  1  0.79247100  0.58494200  0.43750000  1
  Co  Co2  1  0.79247100  0.58494200  0.68750000  1
  Co  Co2  1  0.79247100  0.58494200  0.93750000  1
  Co  Co2  1  0.79247100  0.83494200  0.18750000  1
  Co  Co2  1  0.79247100  0.83494200  0.43750000  1
  Co  Co2  1  0.79247100  0.83494200  0.68750000  1
  Co  Co2  1  0.79247100  0.83494200  0.93750000  1
