# generated using pymatgen
data_Ta6Co7
_symmetry_space_group_name_H-M   'P 1'
_cell_length_a   19.72000000
_cell_length_b   19.72000000
_cell_length_c   105.76000000
_cell_angle_alpha   90.00000000
_cell_angle_beta   90.00000000
_cell_angle_gamma   90.00000000
_symmetry_Int_Tables_number   1
_chemical_formula_structural   Ta6Co7
_chemical_formula_sum   'Ta1152 Co1344'
_cell_volume   41127.77958400
_cell_formula_units_Z   192
loop_
 _symmetry_equiv_pos_site_id
 _symmetry_equiv_pos_as_xyz
  1  'x, y, z'
loop_
 _atom_site_type_symbol
 _atom_site_label
 _atom_site_symmetry_multiplicity
 _atom_site_fract_x
 _atom_site_fract_y
 _atom_site_fract_z
 _atom_site_occupancy
  Co  Co0  1  0.00000000  0.00000000  0.00000000  1
  Co  Co0  1  0.00000000  0.00000000  0.25000000  1
  Co  Co0  1  0.00000000  0.00000000  0.50000000  1
  Co  Co0  1  0.00000000  0.00000000  0.75000000  1
  Co  Co0  1  0.00000000  0.25000000  0.00000000  1
  Co  Co0  1  0.00000000  0.25000000  0.25000000  1
  Co  Co0  1  0.00000000  0.25000000  0.50000000  1
  Co  Co0  1  0.00000000  0.25000000  0.75000000  1
  Co  Co0  1  0.00000000  0.50000000  0.00000000  1
  Co  Co0  1  0.00000000  0.50000000  0.25000000  1
  Co  Co0  1  0.00000000  0.50000000  0.50000000  1
  Co  Co0  1  0.00000000  0.50000000  0.75000000  1
  Co  Co0  1  0.00000000  0.75000000  0.00000000  1
  Co  Co0  1  0.00000000  0.75000000  0.25000000  1
  Co  Co0  1  0.00000000  0.75000000  0.50000000  1
  Co  Co0  1  0.00000000  0.75000000  0.75000000  1
  Co  Co0  1  0.25000000  0.00000000  0.00000000  1
  Co  Co0  1  0.25000000  0.00000000  0.25000000  1
  Co  Co0  1  0.25000000  0.00000000  0.50000000  1
  Co  Co0  1  0.25000000  0.00000000  0.75000000  1
  Co  Co0  1  0.25000000  0.25000000  0.00000000  1
  Co  Co0  1  0.25000000  0.25000000  0.25000000  1
  Co  Co0  1  0.25000000  0.25000000  0.50000000  1
  Co  Co0  1  0.25000000  0.25000000  0.75000000  1
  Co  Co0  1  0.25000000  0.50000000  0.00000000  1
  Co  Co0  1  0.25000000  0.50000000  0.25000000  1
  Co  Co0  1  0.25000000  0.50000000  0.50000000  1
  Co  Co0  1  0.25000000  0.50000000  0.75000000  1
  Co  Co0  1  0.25000000  0.75000000  0.00000000  1
  Co  Co0  1  0.25000000  0.75000000  0.25000000  1
  Co  Co0  1  0.25000000  0.75000000  0.50000000  1
  Co  Co0  1  0.25000000  0.75000000  0.75000000  1
  Co  Co0  1  0.50000000  0.00000000  0.00000000  1
  Co  Co0  1  0.50000000  0.00000000  0.25000000  1
  Co  Co0  1  0.50000000  0.00000000  0.50000000  1
  Co  Co0  1  0.50000000  0.00000000  0.75000000  1
  Co  Co0  1  0.50000000  0.25000000  0.00000000  1
  Co  Co0  1  0.50000000  0.25000000  0.25000000  1
  Co  Co0  1  0.50000000  0.25000000  0.50000000  1
  Co  Co0  1  0.50000000  0.25000000  0.75000000  1
  Co  Co0  1  0.50000000  0.50000000  0.00000000  1
  Co  Co0  1  0.50000000  0.50000000  0.25000000  1
  Co  Co0  1  0.50000000  0.50000000  0.50000000  1
  Co  Co0  1  0.50000000  0.50000000  0.75000000  1
  Co  Co0  1  0.50000000  0.75000000  0.00000000  1
  Co  Co0  1  0.50000000  0.75000000  0.25000000  1
  Co  Co0  1  0.50000000  0.75000000  0.50000000  1
  Co  Co0  1  0.50000000  0.75000000  0.75000000  1
  Co  Co0  1  0.75000000  0.00000000  0.00000000  1
  Co  Co0  1  0.75000000  0.00000000  0.25000000  1
  Co  Co0  1  0.75000000  0.00000000  0.50000000  1
  Co  Co0  1  0.75000000  0.00000000  0.75000000  1
  Co  Co0  1  0.75000000  0.25000000  0.00000000  1
  Co  Co0  1  0.75000000  0.25000000  0.25000000  1
  Co  Co0  1  0.75000000  0.25000000  0.50000000  1
  Co  Co0  1  0.75000000  0.25000000  0.75000000  1
  Co  Co0  1  0.75000000  0.50000000  0.00000000  1
  Co  Co0  1  0.75000000  0.50000000  0.25000000  1
  Co  Co0  1  0.75000000  0.50000000  0.50000000  1
  Co  Co0  1  0.75000000  0.50000000  0.75000000  1
  Co  Co0  1  0.75000000  0.75000000  0.00000000  1
  Co  Co0  1  0.75000000  0.75000000  0.25000000  1
  Co  Co0  1  0.75000000  0.75000000  0.50000000  1
  Co  Co0  1  0.75000000  0.75000000  0.75000000  1
  Co  Co1  1  0.20846342  0.16692683  0.06423208  1
  Co  Co1  1  0.20846342  0.16692683  0.31423208  1
  Co  Co1  1  0.20846342  0.16692683  0.56423208  1
  Co  Co1  1  0.20846342  0.16692683  0.81423208  1
  Co  Co1  1  0.20846342  0.41692683  0.06423208  1
  Co  Co1  1  0.20846342  0.41692683  0.31423208  1
  Co  Co1  1  0.20846342  0.41692683  0.56423208  1
  Co  Co1  1  0.20846342  0.41692683  0.81423208  1
  Co  Co1  1  0.20846342  0.66692683  0.06423208  1
  Co  Co1  1  0.20846342  0.66692683  0.31423208  1
  Co  Co1  1  0.20846342  0.66692683  0.56423208  1
  Co  Co1  1  0.20846342  0.66692683  0.81423208  1
  Co  Co1  1  0.20846342  0.91692683  0.06423208  1
  Co  Co1  1  0.20846342  0.91692683  0.31423208  1
  Co  Co1  1  0.20846342  0.91692683  0.56423208  1
  Co  Co1  1  0.20846342  0.91692683  0.81423208  1
  Co  Co1  1  0.45846342  0.16692683  0.06423208  1
  Co  Co1  1  0.45846342  0.16692683  0.31423208  1
  Co  Co1  1  0.45846342  0.16692683  0.56423208  1
  Co  Co1  1  0.45846342  0.16692683  0.81423208  1
  Co  Co1  1  0.45846342  0.41692683  0.06423208  1
  Co  Co1  1  0.45846342  0.41692683  0.31423208  1
  Co  Co1  1  0.45846342  0.41692683  0.56423208  1
  Co  Co1  1  0.45846342  0.41692683  0.81423208  1
  Co  Co1  1  0.45846342  0.66692683  0.06423208  1
  Co  Co1  1  0.45846342  0.66692683  0.31423208  1
  Co  Co1  1  0.45846342  0.66692683  0.56423208  1
  Co  Co1  1  0.45846342  0.66692683  0.81423208  1
  Co  Co1  1  0.45846342  0.91692683  0.06423208  1
  Co  Co1  1  0.45846342  0.91692683  0.31423208  1
  Co  Co1  1  0.45846342  0.91692683  0.56423208  1
  Co  Co1  1  0.45846342  0.91692683  0.81423208  1
  Co  Co1  1  0.70846342  0.16692683  0.06423208  1
  Co  Co1  1  0.70846342  0.16692683  0.31423208  1
  Co  Co1  1  0.70846342  0.16692683  0.56423208  1
  Co  Co1  1  0.70846342  0.16692683  0.81423208  1
  Co  Co1  1  0.70846342  0.41692683  0.06423208  1
  Co  Co1  1  0.70846342  0.41692683  0.31423208  1
  Co  Co1  1  0.70846342  0.41692683  0.56423208  1
  Co  Co1  1  0.70846342  0.41692683  0.81423208  1
  Co  Co1  1  0.70846342  0.66692683  0.06423208  1
  Co  Co1  1  0.70846342  0.66692683  0.31423208  1
  Co  Co1  1  0.70846342  0.66692683  0.56423208  1
  Co  Co1  1  0.70846342  0.66692683  0.81423208  1
  Co  Co1  1  0.70846342  0.91692683  0.06423208  1
  Co  Co1  1  0.70846342  0.91692683  0.31423208  1
  Co  Co1  1  0.70846342  0.91692683  0.56423208  1
  Co  Co1  1  0.70846342  0.91692683  0.81423208  1
  Co  Co1  1  0.95846342  0.16692683  0.06423208  1
  Co  Co1  1  0.95846342  0.16692683  0.31423208  1
  Co  Co1  1  0.95846342  0.16692683  0.56423208  1
  Co  Co1  1  0.95846342  0.16692683  0.81423208  1
  Co  Co1  1  0.95846342  0.41692683  0.06423208  1
  Co  Co1  1  0.95846342  0.41692683  0.31423208  1
  Co  Co1  1  0.95846342  0.41692683  0.56423208  1
  Co  Co1  1  0.95846342  0.41692683  0.81423208  1
  Co  Co1  1  0.95846342  0.66692683  0.06423208  1
  Co  Co1  1  0.95846342  0.66692683  0.31423208  1
  Co  Co1  1  0.95846342  0.66692683  0.56423208  1
  Co  Co1  1  0.95846342  0.66692683  0.81423208  1
  Co  Co1  1  0.95846342  0.91692683  0.06423208  1
  Co  Co1  1  0.95846342  0.91692683  0.31423208  1
  Co  Co1  1  0.95846342  0.91692683  0.56423208  1
  Co  Co1  1  0.95846342  0.91692683  0.81423208  1
  Co  Co2  1  0.20846342  0.04153658  0.06423208  1
  Co  Co2  1  0.20846342  0.04153658  0.31423208  1
  Co  Co2  1  0.20846342  0.04153658  0.56423208  1
  Co  Co2  1  0.20846342  0.04153658  0.81423208  1
  Co  Co2  1  0.20846342  0.29153658  0.06423208  1
  Co  Co2  1  0.20846342  0.29153658  0.31423208  1
  Co  Co2  1  0.20846342  0.29153658  0.56423208  1
  Co  Co2  1  0.20846342  0.29153658  0.81423208  1
  Co  Co2  1  0.20846342  0.54153658  0.06423208  1
  Co  Co2  1  0.20846342  0.54153658  0.31423208  1
  Co  Co2  1  0.20846342  0.54153658  0.56423208  1
  Co  Co2  1  0.20846342  0.54153658  0.81423208  1
  Co  Co2  1  0.20846342  0.79153658  0.06423208  1
  Co  Co2  1  0.20846342  0.79153658  0.31423208  1
  Co  Co2  1  0.20846342  0.79153658  0.56423208  1
  Co  Co2  1  0.20846342  0.79153658  0.81423208  1
  Co  Co2  1  0.45846342  0.04153658  0.06423208  1
  Co  Co2  1  0.45846342  0.04153658  0.31423208  1
  Co  Co2  1  0.45846342  0.04153658  0.56423208  1
  Co  Co2  1  0.45846342  0.04153658  0.81423208  1
  Co  Co2  1  0.45846342  0.29153658  0.06423208  1
  Co  Co2  1  0.45846342  0.29153658  0.31423208  1
  Co  Co2  1  0.45846342  0.29153658  0.56423208  1
  Co  Co2  1  0.45846342  0.29153658  0.81423208  1
  Co  Co2  1  0.45846342  0.54153658  0.06423208  1
  Co  Co2  1  0.45846342  0.54153658  0.31423208  1
  Co  Co2  1  0.45846342  0.54153658  0.56423208  1
  Co  Co2  1  0.45846342  0.54153658  0.81423208  1
  Co  Co2  1  0.45846342  0.79153658  0.06423208  1
  Co  Co2  1  0.45846342  0.79153658  0.31423208  1
  Co  Co2  1  0.45846342  0.79153658  0.56423208  1
  Co  Co2  1  0.45846342  0.79153658  0.81423208  1
  Co  Co2  1  0.70846342  0.04153658  0.06423208  1
  Co  Co2  1  0.70846342  0.04153658  0.31423208  1
  Co  Co2  1  0.70846342  0.04153658  0.56423208  1
  Co  Co2  1  0.70846342  0.04153658  0.81423208  1
  Co  Co2  1  0.70846342  0.29153658  0.06423208  1
  Co  Co2  1  0.70846342  0.29153658  0.31423208  1
  Co  Co2  1  0.70846342  0.29153658  0.56423208  1
  Co  Co2  1  0.70846342  0.29153658  0.81423208  1
  Co  Co2  1  0.70846342  0.54153658  0.06423208  1
  Co  Co2  1  0.70846342  0.54153658  0.31423208  1
  Co  Co2  1  0.70846342  0.54153658  0.56423208  1
  Co  Co2  1  0.70846342  0.54153658  0.81423208  1
  Co  Co2  1  0.70846342  0.79153658  0.06423208  1
  Co  Co2  1  0.70846342  0.79153658  0.31423208  1
  Co  Co2  1  0.70846342  0.79153658  0.56423208  1
  Co  Co2  1  0.70846342  0.79153658  0.81423208  1
  Co  Co2  1  0.95846342  0.04153658  0.06423208  1
  Co  Co2  1  0.95846342  0.04153658  0.31423208  1
  Co  Co2  1  0.95846342  0.04153658  0.56423208  1
  Co  Co2  1  0.95846342  0.04153658  0.81423208  1
  Co  Co2  1  0.95846342  0.29153658  0.06423208  1
  Co  Co2  1  0.95846342  0.29153658  0.31423208  1
  Co  Co2  1  0.95846342  0.29153658  0.56423208  1
  Co  Co2  1  0.95846342  0.29153658  0.81423208  1
  Co  Co2  1  0.95846342  0.54153658  0.06423208  1
  Co  Co2  1  0.95846342  0.54153658  0.31423208  1
  Co  Co2  1  0.95846342  0.54153658  0.56423208  1
  Co  Co2  1  0.95846342  0.54153658  0.81423208  1
  Co  Co2  1  0.95846342  0.79153658  0.06423208  1
  Co  Co2  1  0.95846342  0.79153658  0.31423208  1
  Co  Co2  1  0.95846342  0.79153658  0.56423208  1
  Co  Co2  1  0.95846342  0.79153658  0.81423208  1
  Co  Co3  1  0.08307317  0.04153658  0.06423208  1
  Co  Co3  1  0.08307317  0.04153658  0.31423208  1
  Co  Co3  1  0.08307317  0.04153658  0.56423208  1
  Co  Co3  1  0.08307317  0.04153658  0.81423208  1
  Co  Co3  1  0.08307317  0.29153658  0.06423208  1
  Co  Co3  1  0.08307317  0.29153658  0.31423208  1
  Co  Co3  1  0.08307317  0.29153658  0.56423208  1
  Co  Co3  1  0.08307317  0.29153658  0.81423208  1
  Co  Co3  1  0.08307317  0.54153658  0.06423208  1
  Co  Co3  1  0.08307317  0.54153658  0.31423208  1
  Co  Co3  1  0.08307317  0.54153658  0.56423208  1
  Co  Co3  1  0.08307317  0.54153658  0.81423208  1
  Co  Co3  1  0.08307317  0.79153658  0.06423208  1
  Co  Co3  1  0.08307317  0.79153658  0.31423208  1
  Co  Co3  1  0.08307317  0.79153658  0.56423208  1
  Co  Co3  1  0.08307317  0.79153658  0.81423208  1
  Co  Co3  1  0.33307317  0.04153658  0.06423208  1
  Co  Co3  1  0.33307317  0.04153658  0.31423208  1
  Co  Co3  1  0.33307317  0.04153658  0.56423208  1
  Co  Co3  1  0.33307317  0.04153658  0.81423208  1
  Co  Co3  1  0.33307317  0.29153658  0.06423208  1
  Co  Co3  1  0.33307317  0.29153658  0.31423208  1
  Co  Co3  1  0.33307317  0.29153658  0.56423208  1
  Co  Co3  1  0.33307317  0.29153658  0.81423208  1
  Co  Co3  1  0.33307317  0.54153658  0.06423208  1
  Co  Co3  1  0.33307317  0.54153658  0.31423208  1
  Co  Co3  1  0.33307317  0.54153658  0.56423208  1
  Co  Co3  1  0.33307317  0.54153658  0.81423208  1
  Co  Co3  1  0.33307317  0.79153658  0.06423208  1
  Co  Co3  1  0.33307317  0.79153658  0.31423208  1
  Co  Co3  1  0.33307317  0.79153658  0.56423208  1
  Co  Co3  1  0.33307317  0.79153658  0.81423208  1
  Co  Co3  1  0.58307317  0.04153658  0.06423208  1
  Co  Co3  1  0.58307317  0.04153658  0.31423208  1
  Co  Co3  1  0.58307317  0.04153658  0.56423208  1
  Co  Co3  1  0.58307317  0.04153658  0.81423208  1
  Co  Co3  1  0.58307317  0.29153658  0.06423208  1
  Co  Co3  1  0.58307317  0.29153658  0.31423208  1
  Co  Co3  1  0.58307317  0.29153658  0.56423208  1
  Co  Co3  1  0.58307317  0.29153658  0.81423208  1
  Co  Co3  1  0.58307317  0.54153658  0.06423208  1
  Co  Co3  1  0.58307317  0.54153658  0.31423208  1
  Co  Co3  1  0.58307317  0.54153658  0.56423208  1
  Co  Co3  1  0.58307317  0.54153658  0.81423208  1
  Co  Co3  1  0.58307317  0.79153658  0.06423208  1
  Co  Co3  1  0.58307317  0.79153658  0.31423208  1
  Co  Co3  1  0.58307317  0.79153658  0.56423208  1
  Co  Co3  1  0.58307317  0.79153658  0.81423208  1
  Co  Co3  1  0.83307317  0.04153658  0.06423208  1
  Co  Co3  1  0.83307317  0.04153658  0.31423208  1
  Co  Co3  1  0.83307317  0.04153658  0.56423208  1
  Co  Co3  1  0.83307317  0.04153658  0.81423208  1
  Co  Co3  1  0.83307317  0.29153658  0.06423208  1
  Co  Co3  1  0.83307317  0.29153658  0.31423208  1
  Co  Co3  1  0.83307317  0.29153658  0.56423208  1
  Co  Co3  1  0.83307317  0.29153658  0.81423208  1
  Co  Co3  1  0.83307317  0.54153658  0.06423208  1
  Co  Co3  1  0.83307317  0.54153658  0.31423208  1
  Co  Co3  1  0.83307317  0.54153658  0.56423208  1
  Co  Co3  1  0.83307317  0.54153658  0.81423208  1
  Co  Co3  1  0.83307317  0.79153658  0.06423208  1
  Co  Co3  1  0.83307317  0.79153658  0.31423208  1
  Co  Co3  1  0.83307317  0.79153658  0.56423208  1
  Co  Co3  1  0.83307317  0.79153658  0.81423208  1
  Co  Co4  1  0.08359350  0.04179675  0.01910125  1
  Co  Co4  1  0.08359350  0.04179675  0.26910125  1
  Co  Co4  1  0.08359350  0.04179675  0.51910125  1
  Co  Co4  1  0.08359350  0.04179675  0.76910125  1
  Co  Co4  1  0.08359350  0.29179675  0.01910125  1
  Co  Co4  1  0.08359350  0.29179675  0.26910125  1
  Co  Co4  1  0.08359350  0.29179675  0.51910125  1
  Co  Co4  1  0.08359350  0.29179675  0.76910125  1
  Co  Co4  1  0.08359350  0.54179675  0.01910125  1
  Co  Co4  1  0.08359350  0.54179675  0.26910125  1
  Co  Co4  1  0.08359350  0.54179675  0.51910125  1
  Co  Co4  1  0.08359350  0.54179675  0.76910125  1
  Co  Co4  1  0.08359350  0.79179675  0.01910125  1
  Co  Co4  1  0.08359350  0.79179675  0.26910125  1
  Co  Co4  1  0.08359350  0.79179675  0.51910125  1
  Co  Co4  1  0.08359350  0.79179675  0.76910125  1
  Co  Co4  1  0.33359350  0.04179675  0.01910125  1
  Co  Co4  1  0.33359350  0.04179675  0.26910125  1
  Co  Co4  1  0.33359350  0.04179675  0.51910125  1
  Co  Co4  1  0.33359350  0.04179675  0.76910125  1
  Co  Co4  1  0.33359350  0.29179675  0.01910125  1
  Co  Co4  1  0.33359350  0.29179675  0.26910125  1
  Co  Co4  1  0.33359350  0.29179675  0.51910125  1
  Co  Co4  1  0.33359350  0.29179675  0.76910125  1
  Co  Co4  1  0.33359350  0.54179675  0.01910125  1
  Co  Co4  1  0.33359350  0.54179675  0.26910125  1
  Co  Co4  1  0.33359350  0.54179675  0.51910125  1
  Co  Co4  1  0.33359350  0.54179675  0.76910125  1
  Co  Co4  1  0.33359350  0.79179675  0.01910125  1
  Co  Co4  1  0.33359350  0.79179675  0.26910125  1
  Co  Co4  1  0.33359350  0.79179675  0.51910125  1
  Co  Co4  1  0.33359350  0.79179675  0.76910125  1
  Co  Co4  1  0.58359350  0.04179675  0.01910125  1
  Co  Co4  1  0.58359350  0.04179675  0.26910125  1
  Co  Co4  1  0.58359350  0.04179675  0.51910125  1
  Co  Co4  1  0.58359350  0.04179675  0.76910125  1
  Co  Co4  1  0.58359350  0.29179675  0.01910125  1
  Co  Co4  1  0.58359350  0.29179675  0.26910125  1
  Co  Co4  1  0.58359350  0.29179675  0.51910125  1
  Co  Co4  1  0.58359350  0.29179675  0.76910125  1
  Co  Co4  1  0.58359350  0.54179675  0.01910125  1
  Co  Co4  1  0.58359350  0.54179675  0.26910125  1
  Co  Co4  1  0.58359350  0.54179675  0.51910125  1
  Co  Co4  1  0.58359350  0.54179675  0.76910125  1
  Co  Co4  1  0.58359350  0.79179675  0.01910125  1
  Co  Co4  1  0.58359350  0.79179675  0.26910125  1
  Co  Co4  1  0.58359350  0.79179675  0.51910125  1
  Co  Co4  1  0.58359350  0.79179675  0.76910125  1
  Co  Co4  1  0.83359350  0.04179675  0.01910125  1
  Co  Co4  1  0.83359350  0.04179675  0.26910125  1
  Co  Co4  1  0.83359350  0.04179675  0.51910125  1
  Co  Co4  1  0.83359350  0.04179675  0.76910125  1
  Co  Co4  1  0.83359350  0.29179675  0.01910125  1
  Co  Co4  1  0.83359350  0.29179675  0.26910125  1
  Co  Co4  1  0.83359350  0.29179675  0.51910125  1
  Co  Co4  1  0.83359350  0.29179675  0.76910125  1
  Co  Co4  1  0.83359350  0.54179675  0.01910125  1
  Co  Co4  1  0.83359350  0.54179675  0.26910125  1
  Co  Co4  1  0.83359350  0.54179675  0.51910125  1
  Co  Co4  1  0.83359350  0.54179675  0.76910125  1
  Co  Co4  1  0.83359350  0.79179675  0.01910125  1
  Co  Co4  1  0.83359350  0.79179675  0.26910125  1
  Co  Co4  1  0.83359350  0.79179675  0.51910125  1
  Co  Co4  1  0.83359350  0.79179675  0.76910125  1
  Co  Co5  1  0.20820325  0.16640650  0.01910125  1
  Co  Co5  1  0.20820325  0.16640650  0.26910125  1
  Co  Co5  1  0.20820325  0.16640650  0.51910125  1
  Co  Co5  1  0.20820325  0.16640650  0.76910125  1
  Co  Co5  1  0.20820325  0.41640650  0.01910125  1
  Co  Co5  1  0.20820325  0.41640650  0.26910125  1
  Co  Co5  1  0.20820325  0.41640650  0.51910125  1
  Co  Co5  1  0.20820325  0.41640650  0.76910125  1
  Co  Co5  1  0.20820325  0.66640650  0.01910125  1
  Co  Co5  1  0.20820325  0.66640650  0.26910125  1
  Co  Co5  1  0.20820325  0.66640650  0.51910125  1
  Co  Co5  1  0.20820325  0.66640650  0.76910125  1
  Co  Co5  1  0.20820325  0.91640650  0.01910125  1
  Co  Co5  1  0.20820325  0.91640650  0.26910125  1
  Co  Co5  1  0.20820325  0.91640650  0.51910125  1
  Co  Co5  1  0.20820325  0.91640650  0.76910125  1
  Co  Co5  1  0.45820325  0.16640650  0.01910125  1
  Co  Co5  1  0.45820325  0.16640650  0.26910125  1
  Co  Co5  1  0.45820325  0.16640650  0.51910125  1
  Co  Co5  1  0.45820325  0.16640650  0.76910125  1
  Co  Co5  1  0.45820325  0.41640650  0.01910125  1
  Co  Co5  1  0.45820325  0.41640650  0.26910125  1
  Co  Co5  1  0.45820325  0.41640650  0.51910125  1
  Co  Co5  1  0.45820325  0.41640650  0.76910125  1
  Co  Co5  1  0.45820325  0.66640650  0.01910125  1
  Co  Co5  1  0.45820325  0.66640650  0.26910125  1
  Co  Co5  1  0.45820325  0.66640650  0.51910125  1
  Co  Co5  1  0.45820325  0.66640650  0.76910125  1
  Co  Co5  1  0.45820325  0.91640650  0.01910125  1
  Co  Co5  1  0.45820325  0.91640650  0.26910125  1
  Co  Co5  1  0.45820325  0.91640650  0.51910125  1
  Co  Co5  1  0.45820325  0.91640650  0.76910125  1
  Co  Co5  1  0.70820325  0.16640650  0.01910125  1
  Co  Co5  1  0.70820325  0.16640650  0.26910125  1
  Co  Co5  1  0.70820325  0.16640650  0.51910125  1
  Co  Co5  1  0.70820325  0.16640650  0.76910125  1
  Co  Co5  1  0.70820325  0.41640650  0.01910125  1
  Co  Co5  1  0.70820325  0.41640650  0.26910125  1
  Co  Co5  1  0.70820325  0.41640650  0.51910125  1
  Co  Co5  1  0.70820325  0.41640650  0.76910125  1
  Co  Co5  1  0.70820325  0.66640650  0.01910125  1
  Co  Co5  1  0.70820325  0.66640650  0.26910125  1
  Co  Co5  1  0.70820325  0.66640650  0.51910125  1
  Co  Co5  1  0.70820325  0.66640650  0.76910125  1
  Co  Co5  1  0.70820325  0.91640650  0.01910125  1
  Co  Co5  1  0.70820325  0.91640650  0.26910125  1
  Co  Co5  1  0.70820325  0.91640650  0.51910125  1
  Co  Co5  1  0.70820325  0.91640650  0.76910125  1
  Co  Co5  1  0.95820325  0.16640650  0.01910125  1
  Co  Co5  1  0.95820325  0.16640650  0.26910125  1
  Co  Co5  1  0.95820325  0.16640650  0.51910125  1
  Co  Co5  1  0.95820325  0.16640650  0.76910125  1
  Co  Co5  1  0.95820325  0.41640650  0.01910125  1
  Co  Co5  1  0.95820325  0.41640650  0.26910125  1
  Co  Co5  1  0.95820325  0.41640650  0.51910125  1
  Co  Co5  1  0.95820325  0.41640650  0.76910125  1
  Co  Co5  1  0.95820325  0.66640650  0.01910125  1
  Co  Co5  1  0.95820325  0.66640650  0.26910125  1
  Co  Co5  1  0.95820325  0.66640650  0.51910125  1
  Co  Co5  1  0.95820325  0.66640650  0.76910125  1
  Co  Co5  1  0.95820325  0.91640650  0.01910125  1
  Co  Co5  1  0.95820325  0.91640650  0.26910125  1
  Co  Co5  1  0.95820325  0.91640650  0.51910125  1
  Co  Co5  1  0.95820325  0.91640650  0.76910125  1
  Co  Co6  1  0.20820325  0.04179675  0.01910125  1
  Co  Co6  1  0.20820325  0.04179675  0.26910125  1
  Co  Co6  1  0.20820325  0.04179675  0.51910125  1
  Co  Co6  1  0.20820325  0.04179675  0.76910125  1
  Co  Co6  1  0.20820325  0.29179675  0.01910125  1
  Co  Co6  1  0.20820325  0.29179675  0.26910125  1
  Co  Co6  1  0.20820325  0.29179675  0.51910125  1
  Co  Co6  1  0.20820325  0.29179675  0.76910125  1
  Co  Co6  1  0.20820325  0.54179675  0.01910125  1
  Co  Co6  1  0.20820325  0.54179675  0.26910125  1
  Co  Co6  1  0.20820325  0.54179675  0.51910125  1
  Co  Co6  1  0.20820325  0.54179675  0.76910125  1
  Co  Co6  1  0.20820325  0.79179675  0.01910125  1
  Co  Co6  1  0.20820325  0.79179675  0.26910125  1
  Co  Co6  1  0.20820325  0.79179675  0.51910125  1
  Co  Co6  1  0.20820325  0.79179675  0.76910125  1
  Co  Co6  1  0.45820325  0.04179675  0.01910125  1
  Co  Co6  1  0.45820325  0.04179675  0.26910125  1
  Co  Co6  1  0.45820325  0.04179675  0.51910125  1
  Co  Co6  1  0.45820325  0.04179675  0.76910125  1
  Co  Co6  1  0.45820325  0.29179675  0.01910125  1
  Co  Co6  1  0.45820325  0.29179675  0.26910125  1
  Co  Co6  1  0.45820325  0.29179675  0.51910125  1
  Co  Co6  1  0.45820325  0.29179675  0.76910125  1
  Co  Co6  1  0.45820325  0.54179675  0.01910125  1
  Co  Co6  1  0.45820325  0.54179675  0.26910125  1
  Co  Co6  1  0.45820325  0.54179675  0.51910125  1
  Co  Co6  1  0.45820325  0.54179675  0.76910125  1
  Co  Co6  1  0.45820325  0.79179675  0.01910125  1
  Co  Co6  1  0.45820325  0.79179675  0.26910125  1
  Co  Co6  1  0.45820325  0.79179675  0.51910125  1
  Co  Co6  1  0.45820325  0.79179675  0.76910125  1
  Co  Co6  1  0.70820325  0.04179675  0.01910125  1
  Co  Co6  1  0.70820325  0.04179675  0.26910125  1
  Co  Co6  1  0.70820325  0.04179675  0.51910125  1
  Co  Co6  1  0.70820325  0.04179675  0.76910125  1
  Co  Co6  1  0.70820325  0.29179675  0.01910125  1
  Co  Co6  1  0.70820325  0.29179675  0.26910125  1
  Co  Co6  1  0.70820325  0.29179675  0.51910125  1
  Co  Co6  1  0.70820325  0.29179675  0.76910125  1
  Co  Co6  1  0.70820325  0.54179675  0.01910125  1
  Co  Co6  1  0.70820325  0.54179675  0.26910125  1
  Co  Co6  1  0.70820325  0.54179675  0.51910125  1
  Co  Co6  1  0.70820325  0.54179675  0.76910125  1
  Co  Co6  1  0.70820325  0.79179675  0.01910125  1
  Co  Co6  1  0.70820325  0.79179675  0.26910125  1
  Co  Co6  1  0.70820325  0.79179675  0.51910125  1
  Co  Co6  1  0.70820325  0.79179675  0.76910125  1
  Co  Co6  1  0.95820325  0.04179675  0.01910125  1
  Co  Co6  1  0.95820325  0.04179675  0.26910125  1
  Co  Co6  1  0.95820325  0.04179675  0.51910125  1
  Co  Co6  1  0.95820325  0.04179675  0.76910125  1
  Co  Co6  1  0.95820325  0.29179675  0.01910125  1
  Co  Co6  1  0.95820325  0.29179675  0.26910125  1
  Co  Co6  1  0.95820325  0.29179675  0.51910125  1
  Co  Co6  1  0.95820325  0.29179675  0.76910125  1
  Co  Co6  1  0.95820325  0.54179675  0.01910125  1
  Co  Co6  1  0.95820325  0.54179675  0.26910125  1
  Co  Co6  1  0.95820325  0.54179675  0.51910125  1
  Co  Co6  1  0.95820325  0.54179675  0.76910125  1
  Co  Co6  1  0.95820325  0.79179675  0.01910125  1
  Co  Co6  1  0.95820325  0.79179675  0.26910125  1
  Co  Co6  1  0.95820325  0.79179675  0.51910125  1
  Co  Co6  1  0.95820325  0.79179675  0.76910125  1
  Co  Co7  1  0.16666667  0.08333333  0.08333333  1
  Co  Co7  1  0.16666667  0.08333333  0.33333333  1
  Co  Co7  1  0.16666667  0.08333333  0.58333333  1
  Co  Co7  1  0.16666667  0.08333333  0.83333333  1
  Co  Co7  1  0.16666667  0.33333333  0.08333333  1
  Co  Co7  1  0.16666667  0.33333333  0.33333333  1
  Co  Co7  1  0.16666667  0.33333333  0.58333333  1
  Co  Co7  1  0.16666667  0.33333333  0.83333333  1
  Co  Co7  1  0.16666667  0.58333333  0.08333333  1
  Co  Co7  1  0.16666667  0.58333333  0.33333333  1
  Co  Co7  1  0.16666667  0.58333333  0.58333333  1
  Co  Co7  1  0.16666667  0.58333333  0.83333333  1
  Co  Co7  1  0.16666667  0.83333333  0.08333333  1
  Co  Co7  1  0.16666667  0.83333333  0.33333333  1
  Co  Co7  1  0.16666667  0.83333333  0.58333333  1
  Co  Co7  1  0.16666667  0.83333333  0.83333333  1
  Co  Co7  1  0.41666667  0.08333333  0.08333333  1
  Co  Co7  1  0.41666667  0.08333333  0.33333333  1
  Co  Co7  1  0.41666667  0.08333333  0.58333333  1
  Co  Co7  1  0.41666667  0.08333333  0.83333333  1
  Co  Co7  1  0.41666667  0.33333333  0.08333333  1
  Co  Co7  1  0.41666667  0.33333333  0.33333333  1
  Co  Co7  1  0.41666667  0.33333333  0.58333333  1
  Co  Co7  1  0.41666667  0.33333333  0.83333333  1
  Co  Co7  1  0.41666667  0.58333333  0.08333333  1
  Co  Co7  1  0.41666667  0.58333333  0.33333333  1
  Co  Co7  1  0.41666667  0.58333333  0.58333333  1
  Co  Co7  1  0.41666667  0.58333333  0.83333333  1
  Co  Co7  1  0.41666667  0.83333333  0.08333333  1
  Co  Co7  1  0.41666667  0.83333333  0.33333333  1
  Co  Co7  1  0.41666667  0.83333333  0.58333333  1
  Co  Co7  1  0.41666667  0.83333333  0.83333333  1
  Co  Co7  1  0.66666667  0.08333333  0.08333333  1
  Co  Co7  1  0.66666667  0.08333333  0.33333333  1
  Co  Co7  1  0.66666667  0.08333333  0.58333333  1
  Co  Co7  1  0.66666667  0.08333333  0.83333333  1
  Co  Co7  1  0.66666667  0.33333333  0.08333333  1
  Co  Co7  1  0.66666667  0.33333333  0.33333333  1
  Co  Co7  1  0.66666667  0.33333333  0.58333333  1
  Co  Co7  1  0.66666667  0.33333333  0.83333333  1
  Co  Co7  1  0.66666667  0.58333333  0.08333333  1
  Co  Co7  1  0.66666667  0.58333333  0.33333333  1
  Co  Co7  1  0.66666667  0.58333333  0.58333333  1
  Co  Co7  1  0.66666667  0.58333333  0.83333333  1
  Co  Co7  1  0.66666667  0.83333333  0.08333333  1
  Co  Co7  1  0.66666667  0.83333333  0.33333333  1
  Co  Co7  1  0.66666667  0.83333333  0.58333333  1
  Co  Co7  1  0.66666667  0.83333333  0.83333333  1
  Co  Co7  1  0.91666667  0.08333333  0.08333333  1
  Co  Co7  1  0.91666667  0.08333333  0.33333333  1
  Co  Co7  1  0.91666667  0.08333333  0.58333333  1
  Co  Co7  1  0.91666667  0.08333333  0.83333333  1
  Co  Co7  1  0.91666667  0.33333333  0.08333333  1
  Co  Co7  1  0.91666667  0.33333333  0.33333333  1
  Co  Co7  1  0.91666667  0.33333333  0.58333333  1
  Co  Co7  1  0.91666667  0.33333333  0.83333333  1
  Co  Co7  1  0.91666667  0.58333333  0.08333333  1
  Co  Co7  1  0.91666667  0.58333333  0.33333333  1
  Co  Co7  1  0.91666667  0.58333333  0.58333333  1
  Co  Co7  1  0.91666667  0.58333333  0.83333333  1
  Co  Co7  1  0.91666667  0.83333333  0.08333333  1
  Co  Co7  1  0.91666667  0.83333333  0.33333333  1
  Co  Co7  1  0.91666667  0.83333333  0.58333333  1
  Co  Co7  1  0.91666667  0.83333333  0.83333333  1
  Co  Co8  1  0.12513008  0.00026017  0.14756542  1
  Co  Co8  1  0.12513008  0.00026017  0.39756542  1
  Co  Co8  1  0.12513008  0.00026017  0.64756542  1
  Co  Co8  1  0.12513008  0.00026017  0.89756542  1
  Co  Co8  1  0.12513008  0.25026017  0.14756542  1
  Co  Co8  1  0.12513008  0.25026017  0.39756542  1
  Co  Co8  1  0.12513008  0.25026017  0.64756542  1
  Co  Co8  1  0.12513008  0.25026017  0.89756542  1
  Co  Co8  1  0.12513008  0.50026017  0.14756542  1
  Co  Co8  1  0.12513008  0.50026017  0.39756542  1
  Co  Co8  1  0.12513008  0.50026017  0.64756542  1
  Co  Co8  1  0.12513008  0.50026017  0.89756542  1
  Co  Co8  1  0.12513008  0.75026017  0.14756542  1
  Co  Co8  1  0.12513008  0.75026017  0.39756542  1
  Co  Co8  1  0.12513008  0.75026017  0.64756542  1
  Co  Co8  1  0.12513008  0.75026017  0.89756542  1
  Co  Co8  1  0.37513008  0.00026017  0.14756542  1
  Co  Co8  1  0.37513008  0.00026017  0.39756542  1
  Co  Co8  1  0.37513008  0.00026017  0.64756542  1
  Co  Co8  1  0.37513008  0.00026017  0.89756542  1
  Co  Co8  1  0.37513008  0.25026017  0.14756542  1
  Co  Co8  1  0.37513008  0.25026017  0.39756542  1
  Co  Co8  1  0.37513008  0.25026017  0.64756542  1
  Co  Co8  1  0.37513008  0.25026017  0.89756542  1
  Co  Co8  1  0.37513008  0.50026017  0.14756542  1
  Co  Co8  1  0.37513008  0.50026017  0.39756542  1
  Co  Co8  1  0.37513008  0.50026017  0.64756542  1
  Co  Co8  1  0.37513008  0.50026017  0.89756542  1
  Co  Co8  1  0.37513008  0.75026017  0.14756542  1
  Co  Co8  1  0.37513008  0.75026017  0.39756542  1
  Co  Co8  1  0.37513008  0.75026017  0.64756542  1
  Co  Co8  1  0.37513008  0.75026017  0.89756542  1
  Co  Co8  1  0.62513008  0.00026017  0.14756542  1
  Co  Co8  1  0.62513008  0.00026017  0.39756542  1
  Co  Co8  1  0.62513008  0.00026017  0.64756542  1
  Co  Co8  1  0.62513008  0.00026017  0.89756542  1
  Co  Co8  1  0.62513008  0.25026017  0.14756542  1
  Co  Co8  1  0.62513008  0.25026017  0.39756542  1
  Co  Co8  1  0.62513008  0.25026017  0.64756542  1
  Co  Co8  1  0.62513008  0.25026017  0.89756542  1
  Co  Co8  1  0.62513008  0.50026017  0.14756542  1
  Co  Co8  1  0.62513008  0.50026017  0.39756542  1
  Co  Co8  1  0.62513008  0.50026017  0.64756542  1
  Co  Co8  1  0.62513008  0.50026017  0.89756542  1
  Co  Co8  1  0.62513008  0.75026017  0.14756542  1
  Co  Co8  1  0.62513008  0.75026017  0.39756542  1
  Co  Co8  1  0.62513008  0.75026017  0.64756542  1
  Co  Co8  1  0.62513008  0.75026017  0.89756542  1
  Co  Co8  1  0.87513008  0.00026017  0.14756542  1
  Co  Co8  1  0.87513008  0.00026017  0.39756542  1
  Co  Co8  1  0.87513008  0.00026017  0.64756542  1
  Co  Co8  1  0.87513008  0.00026017  0.89756542  1
  Co  Co8  1  0.87513008  0.25026017  0.14756542  1
  Co  Co8  1  0.87513008  0.25026017  0.39756542  1
  Co  Co8  1  0.87513008  0.25026017  0.64756542  1
  Co  Co8  1  0.87513008  0.25026017  0.89756542  1
  Co  Co8  1  0.87513008  0.50026017  0.14756542  1
  Co  Co8  1  0.87513008  0.50026017  0.39756542  1
  Co  Co8  1  0.87513008  0.50026017  0.64756542  1
  Co  Co8  1  0.87513008  0.50026017  0.89756542  1
  Co  Co8  1  0.87513008  0.75026017  0.14756542  1
  Co  Co8  1  0.87513008  0.75026017  0.39756542  1
  Co  Co8  1  0.87513008  0.75026017  0.64756542  1
  Co  Co8  1  0.87513008  0.75026017  0.89756542  1
  Co  Co9  1  0.12513008  0.12486992  0.14756542  1
  Co  Co9  1  0.12513008  0.12486992  0.39756542  1
  Co  Co9  1  0.12513008  0.12486992  0.64756542  1
  Co  Co9  1  0.12513008  0.12486992  0.89756542  1
  Co  Co9  1  0.12513008  0.37486992  0.14756542  1
  Co  Co9  1  0.12513008  0.37486992  0.39756542  1
  Co  Co9  1  0.12513008  0.37486992  0.64756542  1
  Co  Co9  1  0.12513008  0.37486992  0.89756542  1
  Co  Co9  1  0.12513008  0.62486992  0.14756542  1
  Co  Co9  1  0.12513008  0.62486992  0.39756542  1
  Co  Co9  1  0.12513008  0.62486992  0.64756542  1
  Co  Co9  1  0.12513008  0.62486992  0.89756542  1
  Co  Co9  1  0.12513008  0.87486992  0.14756542  1
  Co  Co9  1  0.12513008  0.87486992  0.39756542  1
  Co  Co9  1  0.12513008  0.87486992  0.64756542  1
  Co  Co9  1  0.12513008  0.87486992  0.89756542  1
  Co  Co9  1  0.37513008  0.12486992  0.14756542  1
  Co  Co9  1  0.37513008  0.12486992  0.39756542  1
  Co  Co9  1  0.37513008  0.12486992  0.64756542  1
  Co  Co9  1  0.37513008  0.12486992  0.89756542  1
  Co  Co9  1  0.37513008  0.37486992  0.14756542  1
  Co  Co9  1  0.37513008  0.37486992  0.39756542  1
  Co  Co9  1  0.37513008  0.37486992  0.64756542  1
  Co  Co9  1  0.37513008  0.37486992  0.89756542  1
  Co  Co9  1  0.37513008  0.62486992  0.14756542  1
  Co  Co9  1  0.37513008  0.62486992  0.39756542  1
  Co  Co9  1  0.37513008  0.62486992  0.64756542  1
  Co  Co9  1  0.37513008  0.62486992  0.89756542  1
  Co  Co9  1  0.37513008  0.87486992  0.14756542  1
  Co  Co9  1  0.37513008  0.87486992  0.39756542  1
  Co  Co9  1  0.37513008  0.87486992  0.64756542  1
  Co  Co9  1  0.37513008  0.87486992  0.89756542  1
  Co  Co9  1  0.62513008  0.12486992  0.14756542  1
  Co  Co9  1  0.62513008  0.12486992  0.39756542  1
  Co  Co9  1  0.62513008  0.12486992  0.64756542  1
  Co  Co9  1  0.62513008  0.12486992  0.89756542  1
  Co  Co9  1  0.62513008  0.37486992  0.14756542  1
  Co  Co9  1  0.62513008  0.37486992  0.39756542  1
  Co  Co9  1  0.62513008  0.37486992  0.64756542  1
  Co  Co9  1  0.62513008  0.37486992  0.89756542  1
  Co  Co9  1  0.62513008  0.62486992  0.14756542  1
  Co  Co9  1  0.62513008  0.62486992  0.39756542  1
  Co  Co9  1  0.62513008  0.62486992  0.64756542  1
  Co  Co9  1  0.62513008  0.62486992  0.89756542  1
  Co  Co9  1  0.62513008  0.87486992  0.14756542  1
  Co  Co9  1  0.62513008  0.87486992  0.39756542  1
  Co  Co9  1  0.62513008  0.87486992  0.64756542  1
  Co  Co9  1  0.62513008  0.87486992  0.89756542  1
  Co  Co9  1  0.87513008  0.12486992  0.14756542  1
  Co  Co9  1  0.87513008  0.12486992  0.39756542  1
  Co  Co9  1  0.87513008  0.12486992  0.64756542  1
  Co  Co9  1  0.87513008  0.12486992  0.89756542  1
  Co  Co9  1  0.87513008  0.37486992  0.14756542  1
  Co  Co9  1  0.87513008  0.37486992  0.39756542  1
  Co  Co9  1  0.87513008  0.37486992  0.64756542  1
  Co  Co9  1  0.87513008  0.37486992  0.89756542  1
  Co  Co9  1  0.87513008  0.62486992  0.14756542  1
  Co  Co9  1  0.87513008  0.62486992  0.39756542  1
  Co  Co9  1  0.87513008  0.62486992  0.64756542  1
  Co  Co9  1  0.87513008  0.62486992  0.89756542  1
  Co  Co9  1  0.87513008  0.87486992  0.14756542  1
  Co  Co9  1  0.87513008  0.87486992  0.39756542  1
  Co  Co9  1  0.87513008  0.87486992  0.64756542  1
  Co  Co9  1  0.87513008  0.87486992  0.89756542  1
  Co  Co10  1  0.24973983  0.12486992  0.14756542  1
  Co  Co10  1  0.24973983  0.12486992  0.39756542  1
  Co  Co10  1  0.24973983  0.12486992  0.64756542  1
  Co  Co10  1  0.24973983  0.12486992  0.89756542  1
  Co  Co10  1  0.24973983  0.37486992  0.14756542  1
  Co  Co10  1  0.24973983  0.37486992  0.39756542  1
  Co  Co10  1  0.24973983  0.37486992  0.64756542  1
  Co  Co10  1  0.24973983  0.37486992  0.89756542  1
  Co  Co10  1  0.24973983  0.62486992  0.14756542  1
  Co  Co10  1  0.24973983  0.62486992  0.39756542  1
  Co  Co10  1  0.24973983  0.62486992  0.64756542  1
  Co  Co10  1  0.24973983  0.62486992  0.89756542  1
  Co  Co10  1  0.24973983  0.87486992  0.14756542  1
  Co  Co10  1  0.24973983  0.87486992  0.39756542  1
  Co  Co10  1  0.24973983  0.87486992  0.64756542  1
  Co  Co10  1  0.24973983  0.87486992  0.89756542  1
  Co  Co10  1  0.49973983  0.12486992  0.14756542  1
  Co  Co10  1  0.49973983  0.12486992  0.39756542  1
  Co  Co10  1  0.49973983  0.12486992  0.64756542  1
  Co  Co10  1  0.49973983  0.12486992  0.89756542  1
  Co  Co10  1  0.49973983  0.37486992  0.14756542  1
  Co  Co10  1  0.49973983  0.37486992  0.39756542  1
  Co  Co10  1  0.49973983  0.37486992  0.64756542  1
  Co  Co10  1  0.49973983  0.37486992  0.89756542  1
  Co  Co10  1  0.49973983  0.62486992  0.14756542  1
  Co  Co10  1  0.49973983  0.62486992  0.39756542  1
  Co  Co10  1  0.49973983  0.62486992  0.64756542  1
  Co  Co10  1  0.49973983  0.62486992  0.89756542  1
  Co  Co10  1  0.49973983  0.87486992  0.14756542  1
  Co  Co10  1  0.49973983  0.87486992  0.39756542  1
  Co  Co10  1  0.49973983  0.87486992  0.64756542  1
  Co  Co10  1  0.49973983  0.87486992  0.89756542  1
  Co  Co10  1  0.74973983  0.12486992  0.14756542  1
  Co  Co10  1  0.74973983  0.12486992  0.39756542  1
  Co  Co10  1  0.74973983  0.12486992  0.64756542  1
  Co  Co10  1  0.74973983  0.12486992  0.89756542  1
  Co  Co10  1  0.74973983  0.37486992  0.14756542  1
  Co  Co10  1  0.74973983  0.37486992  0.39756542  1
  Co  Co10  1  0.74973983  0.37486992  0.64756542  1
  Co  Co10  1  0.74973983  0.37486992  0.89756542  1
  Co  Co10  1  0.74973983  0.62486992  0.14756542  1
  Co  Co10  1  0.74973983  0.62486992  0.39756542  1
  Co  Co10  1  0.74973983  0.62486992  0.64756542  1
  Co  Co10  1  0.74973983  0.62486992  0.89756542  1
  Co  Co10  1  0.74973983  0.87486992  0.14756542  1
  Co  Co10  1  0.74973983  0.87486992  0.39756542  1
  Co  Co10  1  0.74973983  0.87486992  0.64756542  1
  Co  Co10  1  0.74973983  0.87486992  0.89756542  1
  Co  Co10  1  0.99973983  0.12486992  0.14756542  1
  Co  Co10  1  0.99973983  0.12486992  0.39756542  1
  Co  Co10  1  0.99973983  0.12486992  0.64756542  1
  Co  Co10  1  0.99973983  0.12486992  0.89756542  1
  Co  Co10  1  0.99973983  0.37486992  0.14756542  1
  Co  Co10  1  0.99973983  0.37486992  0.39756542  1
  Co  Co10  1  0.99973983  0.37486992  0.64756542  1
  Co  Co10  1  0.99973983  0.37486992  0.89756542  1
  Co  Co10  1  0.99973983  0.62486992  0.14756542  1
  Co  Co10  1  0.99973983  0.62486992  0.39756542  1
  Co  Co10  1  0.99973983  0.62486992  0.64756542  1
  Co  Co10  1  0.99973983  0.62486992  0.89756542  1
  Co  Co10  1  0.99973983  0.87486992  0.14756542  1
  Co  Co10  1  0.99973983  0.87486992  0.39756542  1
  Co  Co10  1  0.99973983  0.87486992  0.64756542  1
  Co  Co10  1  0.99973983  0.87486992  0.89756542  1
  Co  Co11  1  0.00026017  0.12513008  0.10243458  1
  Co  Co11  1  0.00026017  0.12513008  0.35243458  1
  Co  Co11  1  0.00026017  0.12513008  0.60243458  1
  Co  Co11  1  0.00026017  0.12513008  0.85243458  1
  Co  Co11  1  0.00026017  0.37513008  0.10243458  1
  Co  Co11  1  0.00026017  0.37513008  0.35243458  1
  Co  Co11  1  0.00026017  0.37513008  0.60243458  1
  Co  Co11  1  0.00026017  0.37513008  0.85243458  1
  Co  Co11  1  0.00026017  0.62513008  0.10243458  1
  Co  Co11  1  0.00026017  0.62513008  0.35243458  1
  Co  Co11  1  0.00026017  0.62513008  0.60243458  1
  Co  Co11  1  0.00026017  0.62513008  0.85243458  1
  Co  Co11  1  0.00026017  0.87513008  0.10243458  1
  Co  Co11  1  0.00026017  0.87513008  0.35243458  1
  Co  Co11  1  0.00026017  0.87513008  0.60243458  1
  Co  Co11  1  0.00026017  0.87513008  0.85243458  1
  Co  Co11  1  0.25026017  0.12513008  0.10243458  1
  Co  Co11  1  0.25026017  0.12513008  0.35243458  1
  Co  Co11  1  0.25026017  0.12513008  0.60243458  1
  Co  Co11  1  0.25026017  0.12513008  0.85243458  1
  Co  Co11  1  0.25026017  0.37513008  0.10243458  1
  Co  Co11  1  0.25026017  0.37513008  0.35243458  1
  Co  Co11  1  0.25026017  0.37513008  0.60243458  1
  Co  Co11  1  0.25026017  0.37513008  0.85243458  1
  Co  Co11  1  0.25026017  0.62513008  0.10243458  1
  Co  Co11  1  0.25026017  0.62513008  0.35243458  1
  Co  Co11  1  0.25026017  0.62513008  0.60243458  1
  Co  Co11  1  0.25026017  0.62513008  0.85243458  1
  Co  Co11  1  0.25026017  0.87513008  0.10243458  1
  Co  Co11  1  0.25026017  0.87513008  0.35243458  1
  Co  Co11  1  0.25026017  0.87513008  0.60243458  1
  Co  Co11  1  0.25026017  0.87513008  0.85243458  1
  Co  Co11  1  0.50026017  0.12513008  0.10243458  1
  Co  Co11  1  0.50026017  0.12513008  0.35243458  1
  Co  Co11  1  0.50026017  0.12513008  0.60243458  1
  Co  Co11  1  0.50026017  0.12513008  0.85243458  1
  Co  Co11  1  0.50026017  0.37513008  0.10243458  1
  Co  Co11  1  0.50026017  0.37513008  0.35243458  1
  Co  Co11  1  0.50026017  0.37513008  0.60243458  1
  Co  Co11  1  0.50026017  0.37513008  0.85243458  1
  Co  Co11  1  0.50026017  0.62513008  0.10243458  1
  Co  Co11  1  0.50026017  0.62513008  0.35243458  1
  Co  Co11  1  0.50026017  0.62513008  0.60243458  1
  Co  Co11  1  0.50026017  0.62513008  0.85243458  1
  Co  Co11  1  0.50026017  0.87513008  0.10243458  1
  Co  Co11  1  0.50026017  0.87513008  0.35243458  1
  Co  Co11  1  0.50026017  0.87513008  0.60243458  1
  Co  Co11  1  0.50026017  0.87513008  0.85243458  1
  Co  Co11  1  0.75026017  0.12513008  0.10243458  1
  Co  Co11  1  0.75026017  0.12513008  0.35243458  1
  Co  Co11  1  0.75026017  0.12513008  0.60243458  1
  Co  Co11  1  0.75026017  0.12513008  0.85243458  1
  Co  Co11  1  0.75026017  0.37513008  0.10243458  1
  Co  Co11  1  0.75026017  0.37513008  0.35243458  1
  Co  Co11  1  0.75026017  0.37513008  0.60243458  1
  Co  Co11  1  0.75026017  0.37513008  0.85243458  1
  Co  Co11  1  0.75026017  0.62513008  0.10243458  1
  Co  Co11  1  0.75026017  0.62513008  0.35243458  1
  Co  Co11  1  0.75026017  0.62513008  0.60243458  1
  Co  Co11  1  0.75026017  0.62513008  0.85243458  1
  Co  Co11  1  0.75026017  0.87513008  0.10243458  1
  Co  Co11  1  0.75026017  0.87513008  0.35243458  1
  Co  Co11  1  0.75026017  0.87513008  0.60243458  1
  Co  Co11  1  0.75026017  0.87513008  0.85243458  1
  Co  Co12  1  0.12486992  0.24973983  0.10243458  1
  Co  Co12  1  0.12486992  0.24973983  0.35243458  1
  Co  Co12  1  0.12486992  0.24973983  0.60243458  1
  Co  Co12  1  0.12486992  0.24973983  0.85243458  1
  Co  Co12  1  0.12486992  0.49973983  0.10243458  1
  Co  Co12  1  0.12486992  0.49973983  0.35243458  1
  Co  Co12  1  0.12486992  0.49973983  0.60243458  1
  Co  Co12  1  0.12486992  0.49973983  0.85243458  1
  Co  Co12  1  0.12486992  0.74973983  0.10243458  1
  Co  Co12  1  0.12486992  0.74973983  0.35243458  1
  Co  Co12  1  0.12486992  0.74973983  0.60243458  1
  Co  Co12  1  0.12486992  0.74973983  0.85243458  1
  Co  Co12  1  0.12486992  0.99973983  0.10243458  1
  Co  Co12  1  0.12486992  0.99973983  0.35243458  1
  Co  Co12  1  0.12486992  0.99973983  0.60243458  1
  Co  Co12  1  0.12486992  0.99973983  0.85243458  1
  Co  Co12  1  0.37486992  0.24973983  0.10243458  1
  Co  Co12  1  0.37486992  0.24973983  0.35243458  1
  Co  Co12  1  0.37486992  0.24973983  0.60243458  1
  Co  Co12  1  0.37486992  0.24973983  0.85243458  1
  Co  Co12  1  0.37486992  0.49973983  0.10243458  1
  Co  Co12  1  0.37486992  0.49973983  0.35243458  1
  Co  Co12  1  0.37486992  0.49973983  0.60243458  1
  Co  Co12  1  0.37486992  0.49973983  0.85243458  1
  Co  Co12  1  0.37486992  0.74973983  0.10243458  1
  Co  Co12  1  0.37486992  0.74973983  0.35243458  1
  Co  Co12  1  0.37486992  0.74973983  0.60243458  1
  Co  Co12  1  0.37486992  0.74973983  0.85243458  1
  Co  Co12  1  0.37486992  0.99973983  0.10243458  1
  Co  Co12  1  0.37486992  0.99973983  0.35243458  1
  Co  Co12  1  0.37486992  0.99973983  0.60243458  1
  Co  Co12  1  0.37486992  0.99973983  0.85243458  1
  Co  Co12  1  0.62486992  0.24973983  0.10243458  1
  Co  Co12  1  0.62486992  0.24973983  0.35243458  1
  Co  Co12  1  0.62486992  0.24973983  0.60243458  1
  Co  Co12  1  0.62486992  0.24973983  0.85243458  1
  Co  Co12  1  0.62486992  0.49973983  0.10243458  1
  Co  Co12  1  0.62486992  0.49973983  0.35243458  1
  Co  Co12  1  0.62486992  0.49973983  0.60243458  1
  Co  Co12  1  0.62486992  0.49973983  0.85243458  1
  Co  Co12  1  0.62486992  0.74973983  0.10243458  1
  Co  Co12  1  0.62486992  0.74973983  0.35243458  1
  Co  Co12  1  0.62486992  0.74973983  0.60243458  1
  Co  Co12  1  0.62486992  0.74973983  0.85243458  1
  Co  Co12  1  0.62486992  0.99973983  0.10243458  1
  Co  Co12  1  0.62486992  0.99973983  0.35243458  1
  Co  Co12  1  0.62486992  0.99973983  0.60243458  1
  Co  Co12  1  0.62486992  0.99973983  0.85243458  1
  Co  Co12  1  0.87486992  0.24973983  0.10243458  1
  Co  Co12  1  0.87486992  0.24973983  0.35243458  1
  Co  Co12  1  0.87486992  0.24973983  0.60243458  1
  Co  Co12  1  0.87486992  0.24973983  0.85243458  1
  Co  Co12  1  0.87486992  0.49973983  0.10243458  1
  Co  Co12  1  0.87486992  0.49973983  0.35243458  1
  Co  Co12  1  0.87486992  0.49973983  0.60243458  1
  Co  Co12  1  0.87486992  0.49973983  0.85243458  1
  Co  Co12  1  0.87486992  0.74973983  0.10243458  1
  Co  Co12  1  0.87486992  0.74973983  0.35243458  1
  Co  Co12  1  0.87486992  0.74973983  0.60243458  1
  Co  Co12  1  0.87486992  0.74973983  0.85243458  1
  Co  Co12  1  0.87486992  0.99973983  0.10243458  1
  Co  Co12  1  0.87486992  0.99973983  0.35243458  1
  Co  Co12  1  0.87486992  0.99973983  0.60243458  1
  Co  Co12  1  0.87486992  0.99973983  0.85243458  1
  Co  Co13  1  0.12486992  0.12513008  0.10243458  1
  Co  Co13  1  0.12486992  0.12513008  0.35243458  1
  Co  Co13  1  0.12486992  0.12513008  0.60243458  1
  Co  Co13  1  0.12486992  0.12513008  0.85243458  1
  Co  Co13  1  0.12486992  0.37513008  0.10243458  1
  Co  Co13  1  0.12486992  0.37513008  0.35243458  1
  Co  Co13  1  0.12486992  0.37513008  0.60243458  1
  Co  Co13  1  0.12486992  0.37513008  0.85243458  1
  Co  Co13  1  0.12486992  0.62513008  0.10243458  1
  Co  Co13  1  0.12486992  0.62513008  0.35243458  1
  Co  Co13  1  0.12486992  0.62513008  0.60243458  1
  Co  Co13  1  0.12486992  0.62513008  0.85243458  1
  Co  Co13  1  0.12486992  0.87513008  0.10243458  1
  Co  Co13  1  0.12486992  0.87513008  0.35243458  1
  Co  Co13  1  0.12486992  0.87513008  0.60243458  1
  Co  Co13  1  0.12486992  0.87513008  0.85243458  1
  Co  Co13  1  0.37486992  0.12513008  0.10243458  1
  Co  Co13  1  0.37486992  0.12513008  0.35243458  1
  Co  Co13  1  0.37486992  0.12513008  0.60243458  1
  Co  Co13  1  0.37486992  0.12513008  0.85243458  1
  Co  Co13  1  0.37486992  0.37513008  0.10243458  1
  Co  Co13  1  0.37486992  0.37513008  0.35243458  1
  Co  Co13  1  0.37486992  0.37513008  0.60243458  1
  Co  Co13  1  0.37486992  0.37513008  0.85243458  1
  Co  Co13  1  0.37486992  0.62513008  0.10243458  1
  Co  Co13  1  0.37486992  0.62513008  0.35243458  1
  Co  Co13  1  0.37486992  0.62513008  0.60243458  1
  Co  Co13  1  0.37486992  0.62513008  0.85243458  1
  Co  Co13  1  0.37486992  0.87513008  0.10243458  1
  Co  Co13  1  0.37486992  0.87513008  0.35243458  1
  Co  Co13  1  0.37486992  0.87513008  0.60243458  1
  Co  Co13  1  0.37486992  0.87513008  0.85243458  1
  Co  Co13  1  0.62486992  0.12513008  0.10243458  1
  Co  Co13  1  0.62486992  0.12513008  0.35243458  1
  Co  Co13  1  0.62486992  0.12513008  0.60243458  1
  Co  Co13  1  0.62486992  0.12513008  0.85243458  1
  Co  Co13  1  0.62486992  0.37513008  0.10243458  1
  Co  Co13  1  0.62486992  0.37513008  0.35243458  1
  Co  Co13  1  0.62486992  0.37513008  0.60243458  1
  Co  Co13  1  0.62486992  0.37513008  0.85243458  1
  Co  Co13  1  0.62486992  0.62513008  0.10243458  1
  Co  Co13  1  0.62486992  0.62513008  0.35243458  1
  Co  Co13  1  0.62486992  0.62513008  0.60243458  1
  Co  Co13  1  0.62486992  0.62513008  0.85243458  1
  Co  Co13  1  0.62486992  0.87513008  0.10243458  1
  Co  Co13  1  0.62486992  0.87513008  0.35243458  1
  Co  Co13  1  0.62486992  0.87513008  0.60243458  1
  Co  Co13  1  0.62486992  0.87513008  0.85243458  1
  Co  Co13  1  0.87486992  0.12513008  0.10243458  1
  Co  Co13  1  0.87486992  0.12513008  0.35243458  1
  Co  Co13  1  0.87486992  0.12513008  0.60243458  1
  Co  Co13  1  0.87486992  0.12513008  0.85243458  1
  Co  Co13  1  0.87486992  0.37513008  0.10243458  1
  Co  Co13  1  0.87486992  0.37513008  0.35243458  1
  Co  Co13  1  0.87486992  0.37513008  0.60243458  1
  Co  Co13  1  0.87486992  0.37513008  0.85243458  1
  Co  Co13  1  0.87486992  0.62513008  0.10243458  1
  Co  Co13  1  0.87486992  0.62513008  0.35243458  1
  Co  Co13  1  0.87486992  0.62513008  0.60243458  1
  Co  Co13  1  0.87486992  0.62513008  0.85243458  1
  Co  Co13  1  0.87486992  0.87513008  0.10243458  1
  Co  Co13  1  0.87486992  0.87513008  0.35243458  1
  Co  Co13  1  0.87486992  0.87513008  0.60243458  1
  Co  Co13  1  0.87486992  0.87513008  0.85243458  1
  Co  Co14  1  0.08333333  0.16666667  0.16666667  1
  Co  Co14  1  0.08333333  0.16666667  0.41666667  1
  Co  Co14  1  0.08333333  0.16666667  0.66666667  1
  Co  Co14  1  0.08333333  0.16666667  0.91666667  1
  Co  Co14  1  0.08333333  0.41666667  0.16666667  1
  Co  Co14  1  0.08333333  0.41666667  0.41666667  1
  Co  Co14  1  0.08333333  0.41666667  0.66666667  1
  Co  Co14  1  0.08333333  0.41666667  0.91666667  1
  Co  Co14  1  0.08333333  0.66666667  0.16666667  1
  Co  Co14  1  0.08333333  0.66666667  0.41666667  1
  Co  Co14  1  0.08333333  0.66666667  0.66666667  1
  Co  Co14  1  0.08333333  0.66666667  0.91666667  1
  Co  Co14  1  0.08333333  0.91666667  0.16666667  1
  Co  Co14  1  0.08333333  0.91666667  0.41666667  1
  Co  Co14  1  0.08333333  0.91666667  0.66666667  1
  Co  Co14  1  0.08333333  0.91666667  0.91666667  1
  Co  Co14  1  0.33333333  0.16666667  0.16666667  1
  Co  Co14  1  0.33333333  0.16666667  0.41666667  1
  Co  Co14  1  0.33333333  0.16666667  0.66666667  1
  Co  Co14  1  0.33333333  0.16666667  0.91666667  1
  Co  Co14  1  0.33333333  0.41666667  0.16666667  1
  Co  Co14  1  0.33333333  0.41666667  0.41666667  1
  Co  Co14  1  0.33333333  0.41666667  0.66666667  1
  Co  Co14  1  0.33333333  0.41666667  0.91666667  1
  Co  Co14  1  0.33333333  0.66666667  0.16666667  1
  Co  Co14  1  0.33333333  0.66666667  0.41666667  1
  Co  Co14  1  0.33333333  0.66666667  0.66666667  1
  Co  Co14  1  0.33333333  0.66666667  0.91666667  1
  Co  Co14  1  0.33333333  0.91666667  0.16666667  1
  Co  Co14  1  0.33333333  0.91666667  0.41666667  1
  Co  Co14  1  0.33333333  0.91666667  0.66666667  1
  Co  Co14  1  0.33333333  0.91666667  0.91666667  1
  Co  Co14  1  0.58333333  0.16666667  0.16666667  1
  Co  Co14  1  0.58333333  0.16666667  0.41666667  1
  Co  Co14  1  0.58333333  0.16666667  0.66666667  1
  Co  Co14  1  0.58333333  0.16666667  0.91666667  1
  Co  Co14  1  0.58333333  0.41666667  0.16666667  1
  Co  Co14  1  0.58333333  0.41666667  0.41666667  1
  Co  Co14  1  0.58333333  0.41666667  0.66666667  1
  Co  Co14  1  0.58333333  0.41666667  0.91666667  1
  Co  Co14  1  0.58333333  0.66666667  0.16666667  1
  Co  Co14  1  0.58333333  0.66666667  0.41666667  1
  Co  Co14  1  0.58333333  0.66666667  0.66666667  1
  Co  Co14  1  0.58333333  0.66666667  0.91666667  1
  Co  Co14  1  0.58333333  0.91666667  0.16666667  1
  Co  Co14  1  0.58333333  0.91666667  0.41666667  1
  Co  Co14  1  0.58333333  0.91666667  0.66666667  1
  Co  Co14  1  0.58333333  0.91666667  0.91666667  1
  Co  Co14  1  0.83333333  0.16666667  0.16666667  1
  Co  Co14  1  0.83333333  0.16666667  0.41666667  1
  Co  Co14  1  0.83333333  0.16666667  0.66666667  1
  Co  Co14  1  0.83333333  0.16666667  0.91666667  1
  Co  Co14  1  0.83333333  0.41666667  0.16666667  1
  Co  Co14  1  0.83333333  0.41666667  0.41666667  1
  Co  Co14  1  0.83333333  0.41666667  0.66666667  1
  Co  Co14  1  0.83333333  0.41666667  0.91666667  1
  Co  Co14  1  0.83333333  0.66666667  0.16666667  1
  Co  Co14  1  0.83333333  0.66666667  0.41666667  1
  Co  Co14  1  0.83333333  0.66666667  0.66666667  1
  Co  Co14  1  0.83333333  0.66666667  0.91666667  1
  Co  Co14  1  0.83333333  0.91666667  0.16666667  1
  Co  Co14  1  0.83333333  0.91666667  0.41666667  1
  Co  Co14  1  0.83333333  0.91666667  0.66666667  1
  Co  Co14  1  0.83333333  0.91666667  0.91666667  1
  Co  Co15  1  0.04179675  0.08359350  0.23089875  1
  Co  Co15  1  0.04179675  0.08359350  0.48089875  1
  Co  Co15  1  0.04179675  0.08359350  0.73089875  1
  Co  Co15  1  0.04179675  0.08359350  0.98089875  1
  Co  Co15  1  0.04179675  0.33359350  0.23089875  1
  Co  Co15  1  0.04179675  0.33359350  0.48089875  1
  Co  Co15  1  0.04179675  0.33359350  0.73089875  1
  Co  Co15  1  0.04179675  0.33359350  0.98089875  1
  Co  Co15  1  0.04179675  0.58359350  0.23089875  1
  Co  Co15  1  0.04179675  0.58359350  0.48089875  1
  Co  Co15  1  0.04179675  0.58359350  0.73089875  1
  Co  Co15  1  0.04179675  0.58359350  0.98089875  1
  Co  Co15  1  0.04179675  0.83359350  0.23089875  1
  Co  Co15  1  0.04179675  0.83359350  0.48089875  1
  Co  Co15  1  0.04179675  0.83359350  0.73089875  1
  Co  Co15  1  0.04179675  0.83359350  0.98089875  1
  Co  Co15  1  0.29179675  0.08359350  0.23089875  1
  Co  Co15  1  0.29179675  0.08359350  0.48089875  1
  Co  Co15  1  0.29179675  0.08359350  0.73089875  1
  Co  Co15  1  0.29179675  0.08359350  0.98089875  1
  Co  Co15  1  0.29179675  0.33359350  0.23089875  1
  Co  Co15  1  0.29179675  0.33359350  0.48089875  1
  Co  Co15  1  0.29179675  0.33359350  0.73089875  1
  Co  Co15  1  0.29179675  0.33359350  0.98089875  1
  Co  Co15  1  0.29179675  0.58359350  0.23089875  1
  Co  Co15  1  0.29179675  0.58359350  0.48089875  1
  Co  Co15  1  0.29179675  0.58359350  0.73089875  1
  Co  Co15  1  0.29179675  0.58359350  0.98089875  1
  Co  Co15  1  0.29179675  0.83359350  0.23089875  1
  Co  Co15  1  0.29179675  0.83359350  0.48089875  1
  Co  Co15  1  0.29179675  0.83359350  0.73089875  1
  Co  Co15  1  0.29179675  0.83359350  0.98089875  1
  Co  Co15  1  0.54179675  0.08359350  0.23089875  1
  Co  Co15  1  0.54179675  0.08359350  0.48089875  1
  Co  Co15  1  0.54179675  0.08359350  0.73089875  1
  Co  Co15  1  0.54179675  0.08359350  0.98089875  1
  Co  Co15  1  0.54179675  0.33359350  0.23089875  1
  Co  Co15  1  0.54179675  0.33359350  0.48089875  1
  Co  Co15  1  0.54179675  0.33359350  0.73089875  1
  Co  Co15  1  0.54179675  0.33359350  0.98089875  1
  Co  Co15  1  0.54179675  0.58359350  0.23089875  1
  Co  Co15  1  0.54179675  0.58359350  0.48089875  1
  Co  Co15  1  0.54179675  0.58359350  0.73089875  1
  Co  Co15  1  0.54179675  0.58359350  0.98089875  1
  Co  Co15  1  0.54179675  0.83359350  0.23089875  1
  Co  Co15  1  0.54179675  0.83359350  0.48089875  1
  Co  Co15  1  0.54179675  0.83359350  0.73089875  1
  Co  Co15  1  0.54179675  0.83359350  0.98089875  1
  Co  Co15  1  0.79179675  0.08359350  0.23089875  1
  Co  Co15  1  0.79179675  0.08359350  0.48089875  1
  Co  Co15  1  0.79179675  0.08359350  0.73089875  1
  Co  Co15  1  0.79179675  0.08359350  0.98089875  1
  Co  Co15  1  0.79179675  0.33359350  0.23089875  1
  Co  Co15  1  0.79179675  0.33359350  0.48089875  1
  Co  Co15  1  0.79179675  0.33359350  0.73089875  1
  Co  Co15  1  0.79179675  0.33359350  0.98089875  1
  Co  Co15  1  0.79179675  0.58359350  0.23089875  1
  Co  Co15  1  0.79179675  0.58359350  0.48089875  1
  Co  Co15  1  0.79179675  0.58359350  0.73089875  1
  Co  Co15  1  0.79179675  0.58359350  0.98089875  1
  Co  Co15  1  0.79179675  0.83359350  0.23089875  1
  Co  Co15  1  0.79179675  0.83359350  0.48089875  1
  Co  Co15  1  0.79179675  0.83359350  0.73089875  1
  Co  Co15  1  0.79179675  0.83359350  0.98089875  1
  Co  Co16  1  0.04179675  0.20820325  0.23089875  1
  Co  Co16  1  0.04179675  0.20820325  0.48089875  1
  Co  Co16  1  0.04179675  0.20820325  0.73089875  1
  Co  Co16  1  0.04179675  0.20820325  0.98089875  1
  Co  Co16  1  0.04179675  0.45820325  0.23089875  1
  Co  Co16  1  0.04179675  0.45820325  0.48089875  1
  Co  Co16  1  0.04179675  0.45820325  0.73089875  1
  Co  Co16  1  0.04179675  0.45820325  0.98089875  1
  Co  Co16  1  0.04179675  0.70820325  0.23089875  1
  Co  Co16  1  0.04179675  0.70820325  0.48089875  1
  Co  Co16  1  0.04179675  0.70820325  0.73089875  1
  Co  Co16  1  0.04179675  0.70820325  0.98089875  1
  Co  Co16  1  0.04179675  0.95820325  0.23089875  1
  Co  Co16  1  0.04179675  0.95820325  0.48089875  1
  Co  Co16  1  0.04179675  0.95820325  0.73089875  1
  Co  Co16  1  0.04179675  0.95820325  0.98089875  1
  Co  Co16  1  0.29179675  0.20820325  0.23089875  1
  Co  Co16  1  0.29179675  0.20820325  0.48089875  1
  Co  Co16  1  0.29179675  0.20820325  0.73089875  1
  Co  Co16  1  0.29179675  0.20820325  0.98089875  1
  Co  Co16  1  0.29179675  0.45820325  0.23089875  1
  Co  Co16  1  0.29179675  0.45820325  0.48089875  1
  Co  Co16  1  0.29179675  0.45820325  0.73089875  1
  Co  Co16  1  0.29179675  0.45820325  0.98089875  1
  Co  Co16  1  0.29179675  0.70820325  0.23089875  1
  Co  Co16  1  0.29179675  0.70820325  0.48089875  1
  Co  Co16  1  0.29179675  0.70820325  0.73089875  1
  Co  Co16  1  0.29179675  0.70820325  0.98089875  1
  Co  Co16  1  0.29179675  0.95820325  0.23089875  1
  Co  Co16  1  0.29179675  0.95820325  0.48089875  1
  Co  Co16  1  0.29179675  0.95820325  0.73089875  1
  Co  Co16  1  0.29179675  0.95820325  0.98089875  1
  Co  Co16  1  0.54179675  0.20820325  0.23089875  1
  Co  Co16  1  0.54179675  0.20820325  0.48089875  1
  Co  Co16  1  0.54179675  0.20820325  0.73089875  1
  Co  Co16  1  0.54179675  0.20820325  0.98089875  1
  Co  Co16  1  0.54179675  0.45820325  0.23089875  1
  Co  Co16  1  0.54179675  0.45820325  0.48089875  1
  Co  Co16  1  0.54179675  0.45820325  0.73089875  1
  Co  Co16  1  0.54179675  0.45820325  0.98089875  1
  Co  Co16  1  0.54179675  0.70820325  0.23089875  1
  Co  Co16  1  0.54179675  0.70820325  0.48089875  1
  Co  Co16  1  0.54179675  0.70820325  0.73089875  1
  Co  Co16  1  0.54179675  0.70820325  0.98089875  1
  Co  Co16  1  0.54179675  0.95820325  0.23089875  1
  Co  Co16  1  0.54179675  0.95820325  0.48089875  1
  Co  Co16  1  0.54179675  0.95820325  0.73089875  1
  Co  Co16  1  0.54179675  0.95820325  0.98089875  1
  Co  Co16  1  0.79179675  0.20820325  0.23089875  1
  Co  Co16  1  0.79179675  0.20820325  0.48089875  1
  Co  Co16  1  0.79179675  0.20820325  0.73089875  1
  Co  Co16  1  0.79179675  0.20820325  0.98089875  1
  Co  Co16  1  0.79179675  0.45820325  0.23089875  1
  Co  Co16  1  0.79179675  0.45820325  0.48089875  1
  Co  Co16  1  0.79179675  0.45820325  0.73089875  1
  Co  Co16  1  0.79179675  0.45820325  0.98089875  1
  Co  Co16  1  0.79179675  0.70820325  0.23089875  1
  Co  Co16  1  0.79179675  0.70820325  0.48089875  1
  Co  Co16  1  0.79179675  0.70820325  0.73089875  1
  Co  Co16  1  0.79179675  0.70820325  0.98089875  1
  Co  Co16  1  0.79179675  0.95820325  0.23089875  1
  Co  Co16  1  0.79179675  0.95820325  0.48089875  1
  Co  Co16  1  0.79179675  0.95820325  0.73089875  1
  Co  Co16  1  0.79179675  0.95820325  0.98089875  1
  Co  Co17  1  0.16640650  0.20820325  0.23089875  1
  Co  Co17  1  0.16640650  0.20820325  0.48089875  1
  Co  Co17  1  0.16640650  0.20820325  0.73089875  1
  Co  Co17  1  0.16640650  0.20820325  0.98089875  1
  Co  Co17  1  0.16640650  0.45820325  0.23089875  1
  Co  Co17  1  0.16640650  0.45820325  0.48089875  1
  Co  Co17  1  0.16640650  0.45820325  0.73089875  1
  Co  Co17  1  0.16640650  0.45820325  0.98089875  1
  Co  Co17  1  0.16640650  0.70820325  0.23089875  1
  Co  Co17  1  0.16640650  0.70820325  0.48089875  1
  Co  Co17  1  0.16640650  0.70820325  0.73089875  1
  Co  Co17  1  0.16640650  0.70820325  0.98089875  1
  Co  Co17  1  0.16640650  0.95820325  0.23089875  1
  Co  Co17  1  0.16640650  0.95820325  0.48089875  1
  Co  Co17  1  0.16640650  0.95820325  0.73089875  1
  Co  Co17  1  0.16640650  0.95820325  0.98089875  1
  Co  Co17  1  0.41640650  0.20820325  0.23089875  1
  Co  Co17  1  0.41640650  0.20820325  0.48089875  1
  Co  Co17  1  0.41640650  0.20820325  0.73089875  1
  Co  Co17  1  0.41640650  0.20820325  0.98089875  1
  Co  Co17  1  0.41640650  0.45820325  0.23089875  1
  Co  Co17  1  0.41640650  0.45820325  0.48089875  1
  Co  Co17  1  0.41640650  0.45820325  0.73089875  1
  Co  Co17  1  0.41640650  0.45820325  0.98089875  1
  Co  Co17  1  0.41640650  0.70820325  0.23089875  1
  Co  Co17  1  0.41640650  0.70820325  0.48089875  1
  Co  Co17  1  0.41640650  0.70820325  0.73089875  1
  Co  Co17  1  0.41640650  0.70820325  0.98089875  1
  Co  Co17  1  0.41640650  0.95820325  0.23089875  1
  Co  Co17  1  0.41640650  0.95820325  0.48089875  1
  Co  Co17  1  0.41640650  0.95820325  0.73089875  1
  Co  Co17  1  0.41640650  0.95820325  0.98089875  1
  Co  Co17  1  0.66640650  0.20820325  0.23089875  1
  Co  Co17  1  0.66640650  0.20820325  0.48089875  1
  Co  Co17  1  0.66640650  0.20820325  0.73089875  1
  Co  Co17  1  0.66640650  0.20820325  0.98089875  1
  Co  Co17  1  0.66640650  0.45820325  0.23089875  1
  Co  Co17  1  0.66640650  0.45820325  0.48089875  1
  Co  Co17  1  0.66640650  0.45820325  0.73089875  1
  Co  Co17  1  0.66640650  0.45820325  0.98089875  1
  Co  Co17  1  0.66640650  0.70820325  0.23089875  1
  Co  Co17  1  0.66640650  0.70820325  0.48089875  1
  Co  Co17  1  0.66640650  0.70820325  0.73089875  1
  Co  Co17  1  0.66640650  0.70820325  0.98089875  1
  Co  Co17  1  0.66640650  0.95820325  0.23089875  1
  Co  Co17  1  0.66640650  0.95820325  0.48089875  1
  Co  Co17  1  0.66640650  0.95820325  0.73089875  1
  Co  Co17  1  0.66640650  0.95820325  0.98089875  1
  Co  Co17  1  0.91640650  0.20820325  0.23089875  1
  Co  Co17  1  0.91640650  0.20820325  0.48089875  1
  Co  Co17  1  0.91640650  0.20820325  0.73089875  1
  Co  Co17  1  0.91640650  0.20820325  0.98089875  1
  Co  Co17  1  0.91640650  0.45820325  0.23089875  1
  Co  Co17  1  0.91640650  0.45820325  0.48089875  1
  Co  Co17  1  0.91640650  0.45820325  0.73089875  1
  Co  Co17  1  0.91640650  0.45820325  0.98089875  1
  Co  Co17  1  0.91640650  0.70820325  0.23089875  1
  Co  Co17  1  0.91640650  0.70820325  0.48089875  1
  Co  Co17  1  0.91640650  0.70820325  0.73089875  1
  Co  Co17  1  0.91640650  0.70820325  0.98089875  1
  Co  Co17  1  0.91640650  0.95820325  0.23089875  1
  Co  Co17  1  0.91640650  0.95820325  0.48089875  1
  Co  Co17  1  0.91640650  0.95820325  0.73089875  1
  Co  Co17  1  0.91640650  0.95820325  0.98089875  1
  Co  Co18  1  0.16692683  0.20846342  0.18576792  1
  Co  Co18  1  0.16692683  0.20846342  0.43576792  1
  Co  Co18  1  0.16692683  0.20846342  0.68576792  1
  Co  Co18  1  0.16692683  0.20846342  0.93576792  1
  Co  Co18  1  0.16692683  0.45846342  0.18576792  1
  Co  Co18  1  0.16692683  0.45846342  0.43576792  1
  Co  Co18  1  0.16692683  0.45846342  0.68576792  1
  Co  Co18  1  0.16692683  0.45846342  0.93576792  1
  Co  Co18  1  0.16692683  0.70846342  0.18576792  1
  Co  Co18  1  0.16692683  0.70846342  0.43576792  1
  Co  Co18  1  0.16692683  0.70846342  0.68576792  1
  Co  Co18  1  0.16692683  0.70846342  0.93576792  1
  Co  Co18  1  0.16692683  0.95846342  0.18576792  1
  Co  Co18  1  0.16692683  0.95846342  0.43576792  1
  Co  Co18  1  0.16692683  0.95846342  0.68576792  1
  Co  Co18  1  0.16692683  0.95846342  0.93576792  1
  Co  Co18  1  0.41692683  0.20846342  0.18576792  1
  Co  Co18  1  0.41692683  0.20846342  0.43576792  1
  Co  Co18  1  0.41692683  0.20846342  0.68576792  1
  Co  Co18  1  0.41692683  0.20846342  0.93576792  1
  Co  Co18  1  0.41692683  0.45846342  0.18576792  1
  Co  Co18  1  0.41692683  0.45846342  0.43576792  1
  Co  Co18  1  0.41692683  0.45846342  0.68576792  1
  Co  Co18  1  0.41692683  0.45846342  0.93576792  1
  Co  Co18  1  0.41692683  0.70846342  0.18576792  1
  Co  Co18  1  0.41692683  0.70846342  0.43576792  1
  Co  Co18  1  0.41692683  0.70846342  0.68576792  1
  Co  Co18  1  0.41692683  0.70846342  0.93576792  1
  Co  Co18  1  0.41692683  0.95846342  0.18576792  1
  Co  Co18  1  0.41692683  0.95846342  0.43576792  1
  Co  Co18  1  0.41692683  0.95846342  0.68576792  1
  Co  Co18  1  0.41692683  0.95846342  0.93576792  1
  Co  Co18  1  0.66692683  0.20846342  0.18576792  1
  Co  Co18  1  0.66692683  0.20846342  0.43576792  1
  Co  Co18  1  0.66692683  0.20846342  0.68576792  1
  Co  Co18  1  0.66692683  0.20846342  0.93576792  1
  Co  Co18  1  0.66692683  0.45846342  0.18576792  1
  Co  Co18  1  0.66692683  0.45846342  0.43576792  1
  Co  Co18  1  0.66692683  0.45846342  0.68576792  1
  Co  Co18  1  0.66692683  0.45846342  0.93576792  1
  Co  Co18  1  0.66692683  0.70846342  0.18576792  1
  Co  Co18  1  0.66692683  0.70846342  0.43576792  1
  Co  Co18  1  0.66692683  0.70846342  0.68576792  1
  Co  Co18  1  0.66692683  0.70846342  0.93576792  1
  Co  Co18  1  0.66692683  0.95846342  0.18576792  1
  Co  Co18  1  0.66692683  0.95846342  0.43576792  1
  Co  Co18  1  0.66692683  0.95846342  0.68576792  1
  Co  Co18  1  0.66692683  0.95846342  0.93576792  1
  Co  Co18  1  0.91692683  0.20846342  0.18576792  1
  Co  Co18  1  0.91692683  0.20846342  0.43576792  1
  Co  Co18  1  0.91692683  0.20846342  0.68576792  1
  Co  Co18  1  0.91692683  0.20846342  0.93576792  1
  Co  Co18  1  0.91692683  0.45846342  0.18576792  1
  Co  Co18  1  0.91692683  0.45846342  0.43576792  1
  Co  Co18  1  0.91692683  0.45846342  0.68576792  1
  Co  Co18  1  0.91692683  0.45846342  0.93576792  1
  Co  Co18  1  0.91692683  0.70846342  0.18576792  1
  Co  Co18  1  0.91692683  0.70846342  0.43576792  1
  Co  Co18  1  0.91692683  0.70846342  0.68576792  1
  Co  Co18  1  0.91692683  0.70846342  0.93576792  1
  Co  Co18  1  0.91692683  0.95846342  0.18576792  1
  Co  Co18  1  0.91692683  0.95846342  0.43576792  1
  Co  Co18  1  0.91692683  0.95846342  0.68576792  1
  Co  Co18  1  0.91692683  0.95846342  0.93576792  1
  Co  Co19  1  0.04153658  0.08307317  0.18576792  1
  Co  Co19  1  0.04153658  0.08307317  0.43576792  1
  Co  Co19  1  0.04153658  0.08307317  0.68576792  1
  Co  Co19  1  0.04153658  0.08307317  0.93576792  1
  Co  Co19  1  0.04153658  0.33307317  0.18576792  1
  Co  Co19  1  0.04153658  0.33307317  0.43576792  1
  Co  Co19  1  0.04153658  0.33307317  0.68576792  1
  Co  Co19  1  0.04153658  0.33307317  0.93576792  1
  Co  Co19  1  0.04153658  0.58307317  0.18576792  1
  Co  Co19  1  0.04153658  0.58307317  0.43576792  1
  Co  Co19  1  0.04153658  0.58307317  0.68576792  1
  Co  Co19  1  0.04153658  0.58307317  0.93576792  1
  Co  Co19  1  0.04153658  0.83307317  0.18576792  1
  Co  Co19  1  0.04153658  0.83307317  0.43576792  1
  Co  Co19  1  0.04153658  0.83307317  0.68576792  1
  Co  Co19  1  0.04153658  0.83307317  0.93576792  1
  Co  Co19  1  0.29153658  0.08307317  0.18576792  1
  Co  Co19  1  0.29153658  0.08307317  0.43576792  1
  Co  Co19  1  0.29153658  0.08307317  0.68576792  1
  Co  Co19  1  0.29153658  0.08307317  0.93576792  1
  Co  Co19  1  0.29153658  0.33307317  0.18576792  1
  Co  Co19  1  0.29153658  0.33307317  0.43576792  1
  Co  Co19  1  0.29153658  0.33307317  0.68576792  1
  Co  Co19  1  0.29153658  0.33307317  0.93576792  1
  Co  Co19  1  0.29153658  0.58307317  0.18576792  1
  Co  Co19  1  0.29153658  0.58307317  0.43576792  1
  Co  Co19  1  0.29153658  0.58307317  0.68576792  1
  Co  Co19  1  0.29153658  0.58307317  0.93576792  1
  Co  Co19  1  0.29153658  0.83307317  0.18576792  1
  Co  Co19  1  0.29153658  0.83307317  0.43576792  1
  Co  Co19  1  0.29153658  0.83307317  0.68576792  1
  Co  Co19  1  0.29153658  0.83307317  0.93576792  1
  Co  Co19  1  0.54153658  0.08307317  0.18576792  1
  Co  Co19  1  0.54153658  0.08307317  0.43576792  1
  Co  Co19  1  0.54153658  0.08307317  0.68576792  1
  Co  Co19  1  0.54153658  0.08307317  0.93576792  1
  Co  Co19  1  0.54153658  0.33307317  0.18576792  1
  Co  Co19  1  0.54153658  0.33307317  0.43576792  1
  Co  Co19  1  0.54153658  0.33307317  0.68576792  1
  Co  Co19  1  0.54153658  0.33307317  0.93576792  1
  Co  Co19  1  0.54153658  0.58307317  0.18576792  1
  Co  Co19  1  0.54153658  0.58307317  0.43576792  1
  Co  Co19  1  0.54153658  0.58307317  0.68576792  1
  Co  Co19  1  0.54153658  0.58307317  0.93576792  1
  Co  Co19  1  0.54153658  0.83307317  0.18576792  1
  Co  Co19  1  0.54153658  0.83307317  0.43576792  1
  Co  Co19  1  0.54153658  0.83307317  0.68576792  1
  Co  Co19  1  0.54153658  0.83307317  0.93576792  1
  Co  Co19  1  0.79153658  0.08307317  0.18576792  1
  Co  Co19  1  0.79153658  0.08307317  0.43576792  1
  Co  Co19  1  0.79153658  0.08307317  0.68576792  1
  Co  Co19  1  0.79153658  0.08307317  0.93576792  1
  Co  Co19  1  0.79153658  0.33307317  0.18576792  1
  Co  Co19  1  0.79153658  0.33307317  0.43576792  1
  Co  Co19  1  0.79153658  0.33307317  0.68576792  1
  Co  Co19  1  0.79153658  0.33307317  0.93576792  1
  Co  Co19  1  0.79153658  0.58307317  0.18576792  1
  Co  Co19  1  0.79153658  0.58307317  0.43576792  1
  Co  Co19  1  0.79153658  0.58307317  0.68576792  1
  Co  Co19  1  0.79153658  0.58307317  0.93576792  1
  Co  Co19  1  0.79153658  0.83307317  0.18576792  1
  Co  Co19  1  0.79153658  0.83307317  0.43576792  1
  Co  Co19  1  0.79153658  0.83307317  0.68576792  1
  Co  Co19  1  0.79153658  0.83307317  0.93576792  1
  Co  Co20  1  0.04153658  0.20846342  0.18576792  1
  Co  Co20  1  0.04153658  0.20846342  0.43576792  1
  Co  Co20  1  0.04153658  0.20846342  0.68576792  1
  Co  Co20  1  0.04153658  0.20846342  0.93576792  1
  Co  Co20  1  0.04153658  0.45846342  0.18576792  1
  Co  Co20  1  0.04153658  0.45846342  0.43576792  1
  Co  Co20  1  0.04153658  0.45846342  0.68576792  1
  Co  Co20  1  0.04153658  0.45846342  0.93576792  1
  Co  Co20  1  0.04153658  0.70846342  0.18576792  1
  Co  Co20  1  0.04153658  0.70846342  0.43576792  1
  Co  Co20  1  0.04153658  0.70846342  0.68576792  1
  Co  Co20  1  0.04153658  0.70846342  0.93576792  1
  Co  Co20  1  0.04153658  0.95846342  0.18576792  1
  Co  Co20  1  0.04153658  0.95846342  0.43576792  1
  Co  Co20  1  0.04153658  0.95846342  0.68576792  1
  Co  Co20  1  0.04153658  0.95846342  0.93576792  1
  Co  Co20  1  0.29153658  0.20846342  0.18576792  1
  Co  Co20  1  0.29153658  0.20846342  0.43576792  1
  Co  Co20  1  0.29153658  0.20846342  0.68576792  1
  Co  Co20  1  0.29153658  0.20846342  0.93576792  1
  Co  Co20  1  0.29153658  0.45846342  0.18576792  1
  Co  Co20  1  0.29153658  0.45846342  0.43576792  1
  Co  Co20  1  0.29153658  0.45846342  0.68576792  1
  Co  Co20  1  0.29153658  0.45846342  0.93576792  1
  Co  Co20  1  0.29153658  0.70846342  0.18576792  1
  Co  Co20  1  0.29153658  0.70846342  0.43576792  1
  Co  Co20  1  0.29153658  0.70846342  0.68576792  1
  Co  Co20  1  0.29153658  0.70846342  0.93576792  1
  Co  Co20  1  0.29153658  0.95846342  0.18576792  1
  Co  Co20  1  0.29153658  0.95846342  0.43576792  1
  Co  Co20  1  0.29153658  0.95846342  0.68576792  1
  Co  Co20  1  0.29153658  0.95846342  0.93576792  1
  Co  Co20  1  0.54153658  0.20846342  0.18576792  1
  Co  Co20  1  0.54153658  0.20846342  0.43576792  1
  Co  Co20  1  0.54153658  0.20846342  0.68576792  1
  Co  Co20  1  0.54153658  0.20846342  0.93576792  1
  Co  Co20  1  0.54153658  0.45846342  0.18576792  1
  Co  Co20  1  0.54153658  0.45846342  0.43576792  1
  Co  Co20  1  0.54153658  0.45846342  0.68576792  1
  Co  Co20  1  0.54153658  0.45846342  0.93576792  1
  Co  Co20  1  0.54153658  0.70846342  0.18576792  1
  Co  Co20  1  0.54153658  0.70846342  0.43576792  1
  Co  Co20  1  0.54153658  0.70846342  0.68576792  1
  Co  Co20  1  0.54153658  0.70846342  0.93576792  1
  Co  Co20  1  0.54153658  0.95846342  0.18576792  1
  Co  Co20  1  0.54153658  0.95846342  0.43576792  1
  Co  Co20  1  0.54153658  0.95846342  0.68576792  1
  Co  Co20  1  0.54153658  0.95846342  0.93576792  1
  Co  Co20  1  0.79153658  0.20846342  0.18576792  1
  Co  Co20  1  0.79153658  0.20846342  0.43576792  1
  Co  Co20  1  0.79153658  0.20846342  0.68576792  1
  Co  Co20  1  0.79153658  0.20846342  0.93576792  1
  Co  Co20  1  0.79153658  0.45846342  0.18576792  1
  Co  Co20  1  0.79153658  0.45846342  0.43576792  1
  Co  Co20  1  0.79153658  0.45846342  0.68576792  1
  Co  Co20  1  0.79153658  0.45846342  0.93576792  1
  Co  Co20  1  0.79153658  0.70846342  0.18576792  1
  Co  Co20  1  0.79153658  0.70846342  0.43576792  1
  Co  Co20  1  0.79153658  0.70846342  0.68576792  1
  Co  Co20  1  0.79153658  0.70846342  0.93576792  1
  Co  Co20  1  0.79153658  0.95846342  0.18576792  1
  Co  Co20  1  0.79153658  0.95846342  0.43576792  1
  Co  Co20  1  0.79153658  0.95846342  0.68576792  1
  Co  Co20  1  0.79153658  0.95846342  0.93576792  1
  Ta  Ta21  1  0.00000000  0.00000000  0.04152500  1
  Ta  Ta21  1  0.00000000  0.00000000  0.29152500  1
  Ta  Ta21  1  0.00000000  0.00000000  0.54152500  1
  Ta  Ta21  1  0.00000000  0.00000000  0.79152500  1
  Ta  Ta21  1  0.00000000  0.25000000  0.04152500  1
  Ta  Ta21  1  0.00000000  0.25000000  0.29152500  1
  Ta  Ta21  1  0.00000000  0.25000000  0.54152500  1
  Ta  Ta21  1  0.00000000  0.25000000  0.79152500  1
  Ta  Ta21  1  0.00000000  0.50000000  0.04152500  1
  Ta  Ta21  1  0.00000000  0.50000000  0.29152500  1
  Ta  Ta21  1  0.00000000  0.50000000  0.54152500  1
  Ta  Ta21  1  0.00000000  0.50000000  0.79152500  1
  Ta  Ta21  1  0.00000000  0.75000000  0.04152500  1
  Ta  Ta21  1  0.00000000  0.75000000  0.29152500  1
  Ta  Ta21  1  0.00000000  0.75000000  0.54152500  1
  Ta  Ta21  1  0.00000000  0.75000000  0.79152500  1
  Ta  Ta21  1  0.25000000  0.00000000  0.04152500  1
  Ta  Ta21  1  0.25000000  0.00000000  0.29152500  1
  Ta  Ta21  1  0.25000000  0.00000000  0.54152500  1
  Ta  Ta21  1  0.25000000  0.00000000  0.79152500  1
  Ta  Ta21  1  0.25000000  0.25000000  0.04152500  1
  Ta  Ta21  1  0.25000000  0.25000000  0.29152500  1
  Ta  Ta21  1  0.25000000  0.25000000  0.54152500  1
  Ta  Ta21  1  0.25000000  0.25000000  0.79152500  1
  Ta  Ta21  1  0.25000000  0.50000000  0.04152500  1
  Ta  Ta21  1  0.25000000  0.50000000  0.29152500  1
  Ta  Ta21  1  0.25000000  0.50000000  0.54152500  1
  Ta  Ta21  1  0.25000000  0.50000000  0.79152500  1
  Ta  Ta21  1  0.25000000  0.75000000  0.04152500  1
  Ta  Ta21  1  0.25000000  0.75000000  0.29152500  1
  Ta  Ta21  1  0.25000000  0.75000000  0.54152500  1
  Ta  Ta21  1  0.25000000  0.75000000  0.79152500  1
  Ta  Ta21  1  0.50000000  0.00000000  0.04152500  1
  Ta  Ta21  1  0.50000000  0.00000000  0.29152500  1
  Ta  Ta21  1  0.50000000  0.00000000  0.54152500  1
  Ta  Ta21  1  0.50000000  0.00000000  0.79152500  1
  Ta  Ta21  1  0.50000000  0.25000000  0.04152500  1
  Ta  Ta21  1  0.50000000  0.25000000  0.29152500  1
  Ta  Ta21  1  0.50000000  0.25000000  0.54152500  1
  Ta  Ta21  1  0.50000000  0.25000000  0.79152500  1
  Ta  Ta21  1  0.50000000  0.50000000  0.04152500  1
  Ta  Ta21  1  0.50000000  0.50000000  0.29152500  1
  Ta  Ta21  1  0.50000000  0.50000000  0.54152500  1
  Ta  Ta21  1  0.50000000  0.50000000  0.79152500  1
  Ta  Ta21  1  0.50000000  0.75000000  0.04152500  1
  Ta  Ta21  1  0.50000000  0.75000000  0.29152500  1
  Ta  Ta21  1  0.50000000  0.75000000  0.54152500  1
  Ta  Ta21  1  0.50000000  0.75000000  0.79152500  1
  Ta  Ta21  1  0.75000000  0.00000000  0.04152500  1
  Ta  Ta21  1  0.75000000  0.00000000  0.29152500  1
  Ta  Ta21  1  0.75000000  0.00000000  0.54152500  1
  Ta  Ta21  1  0.75000000  0.00000000  0.79152500  1
  Ta  Ta21  1  0.75000000  0.25000000  0.04152500  1
  Ta  Ta21  1  0.75000000  0.25000000  0.29152500  1
  Ta  Ta21  1  0.75000000  0.25000000  0.54152500  1
  Ta  Ta21  1  0.75000000  0.25000000  0.79152500  1
  Ta  Ta21  1  0.75000000  0.50000000  0.04152500  1
  Ta  Ta21  1  0.75000000  0.50000000  0.29152500  1
  Ta  Ta21  1  0.75000000  0.50000000  0.54152500  1
  Ta  Ta21  1  0.75000000  0.50000000  0.79152500  1
  Ta  Ta21  1  0.75000000  0.75000000  0.04152500  1
  Ta  Ta21  1  0.75000000  0.75000000  0.29152500  1
  Ta  Ta21  1  0.75000000  0.75000000  0.54152500  1
  Ta  Ta21  1  0.75000000  0.75000000  0.79152500  1
  Ta  Ta22  1  0.16666667  0.08333333  0.04180833  1
  Ta  Ta22  1  0.16666667  0.08333333  0.29180833  1
  Ta  Ta22  1  0.16666667  0.08333333  0.54180833  1
  Ta  Ta22  1  0.16666667  0.08333333  0.79180833  1
  Ta  Ta22  1  0.16666667  0.33333333  0.04180833  1
  Ta  Ta22  1  0.16666667  0.33333333  0.29180833  1
  Ta  Ta22  1  0.16666667  0.33333333  0.54180833  1
  Ta  Ta22  1  0.16666667  0.33333333  0.79180833  1
  Ta  Ta22  1  0.16666667  0.58333333  0.04180833  1
  Ta  Ta22  1  0.16666667  0.58333333  0.29180833  1
  Ta  Ta22  1  0.16666667  0.58333333  0.54180833  1
  Ta  Ta22  1  0.16666667  0.58333333  0.79180833  1
  Ta  Ta22  1  0.16666667  0.83333333  0.04180833  1
  Ta  Ta22  1  0.16666667  0.83333333  0.29180833  1
  Ta  Ta22  1  0.16666667  0.83333333  0.54180833  1
  Ta  Ta22  1  0.16666667  0.83333333  0.79180833  1
  Ta  Ta22  1  0.41666667  0.08333333  0.04180833  1
  Ta  Ta22  1  0.41666667  0.08333333  0.29180833  1
  Ta  Ta22  1  0.41666667  0.08333333  0.54180833  1
  Ta  Ta22  1  0.41666667  0.08333333  0.79180833  1
  Ta  Ta22  1  0.41666667  0.33333333  0.04180833  1
  Ta  Ta22  1  0.41666667  0.33333333  0.29180833  1
  Ta  Ta22  1  0.41666667  0.33333333  0.54180833  1
  Ta  Ta22  1  0.41666667  0.33333333  0.79180833  1
  Ta  Ta22  1  0.41666667  0.58333333  0.04180833  1
  Ta  Ta22  1  0.41666667  0.58333333  0.29180833  1
  Ta  Ta22  1  0.41666667  0.58333333  0.54180833  1
  Ta  Ta22  1  0.41666667  0.58333333  0.79180833  1
  Ta  Ta22  1  0.41666667  0.83333333  0.04180833  1
  Ta  Ta22  1  0.41666667  0.83333333  0.29180833  1
  Ta  Ta22  1  0.41666667  0.83333333  0.54180833  1
  Ta  Ta22  1  0.41666667  0.83333333  0.79180833  1
  Ta  Ta22  1  0.66666667  0.08333333  0.04180833  1
  Ta  Ta22  1  0.66666667  0.08333333  0.29180833  1
  Ta  Ta22  1  0.66666667  0.08333333  0.54180833  1
  Ta  Ta22  1  0.66666667  0.08333333  0.79180833  1
  Ta  Ta22  1  0.66666667  0.33333333  0.04180833  1
  Ta  Ta22  1  0.66666667  0.33333333  0.29180833  1
  Ta  Ta22  1  0.66666667  0.33333333  0.54180833  1
  Ta  Ta22  1  0.66666667  0.33333333  0.79180833  1
  Ta  Ta22  1  0.66666667  0.58333333  0.04180833  1
  Ta  Ta22  1  0.66666667  0.58333333  0.29180833  1
  Ta  Ta22  1  0.66666667  0.58333333  0.54180833  1
  Ta  Ta22  1  0.66666667  0.58333333  0.79180833  1
  Ta  Ta22  1  0.66666667  0.83333333  0.04180833  1
  Ta  Ta22  1  0.66666667  0.83333333  0.29180833  1
  Ta  Ta22  1  0.66666667  0.83333333  0.54180833  1
  Ta  Ta22  1  0.66666667  0.83333333  0.79180833  1
  Ta  Ta22  1  0.91666667  0.08333333  0.04180833  1
  Ta  Ta22  1  0.91666667  0.08333333  0.29180833  1
  Ta  Ta22  1  0.91666667  0.08333333  0.54180833  1
  Ta  Ta22  1  0.91666667  0.08333333  0.79180833  1
  Ta  Ta22  1  0.91666667  0.33333333  0.04180833  1
  Ta  Ta22  1  0.91666667  0.33333333  0.29180833  1
  Ta  Ta22  1  0.91666667  0.33333333  0.54180833  1
  Ta  Ta22  1  0.91666667  0.33333333  0.79180833  1
  Ta  Ta22  1  0.91666667  0.58333333  0.04180833  1
  Ta  Ta22  1  0.91666667  0.58333333  0.29180833  1
  Ta  Ta22  1  0.91666667  0.58333333  0.54180833  1
  Ta  Ta22  1  0.91666667  0.58333333  0.79180833  1
  Ta  Ta22  1  0.91666667  0.83333333  0.04180833  1
  Ta  Ta22  1  0.91666667  0.83333333  0.29180833  1
  Ta  Ta22  1  0.91666667  0.83333333  0.54180833  1
  Ta  Ta22  1  0.91666667  0.83333333  0.79180833  1
  Ta  Ta23  1  0.08333333  0.16666667  0.00352592  1
  Ta  Ta23  1  0.08333333  0.16666667  0.25352592  1
  Ta  Ta23  1  0.08333333  0.16666667  0.50352592  1
  Ta  Ta23  1  0.08333333  0.16666667  0.75352592  1
  Ta  Ta23  1  0.08333333  0.41666667  0.00352592  1
  Ta  Ta23  1  0.08333333  0.41666667  0.25352592  1
  Ta  Ta23  1  0.08333333  0.41666667  0.50352592  1
  Ta  Ta23  1  0.08333333  0.41666667  0.75352592  1
  Ta  Ta23  1  0.08333333  0.66666667  0.00352592  1
  Ta  Ta23  1  0.08333333  0.66666667  0.25352592  1
  Ta  Ta23  1  0.08333333  0.66666667  0.50352592  1
  Ta  Ta23  1  0.08333333  0.66666667  0.75352592  1
  Ta  Ta23  1  0.08333333  0.91666667  0.00352592  1
  Ta  Ta23  1  0.08333333  0.91666667  0.25352592  1
  Ta  Ta23  1  0.08333333  0.91666667  0.50352592  1
  Ta  Ta23  1  0.08333333  0.91666667  0.75352592  1
  Ta  Ta23  1  0.33333333  0.16666667  0.00352592  1
  Ta  Ta23  1  0.33333333  0.16666667  0.25352592  1
  Ta  Ta23  1  0.33333333  0.16666667  0.50352592  1
  Ta  Ta23  1  0.33333333  0.16666667  0.75352592  1
  Ta  Ta23  1  0.33333333  0.41666667  0.00352592  1
  Ta  Ta23  1  0.33333333  0.41666667  0.25352592  1
  Ta  Ta23  1  0.33333333  0.41666667  0.50352592  1
  Ta  Ta23  1  0.33333333  0.41666667  0.75352592  1
  Ta  Ta23  1  0.33333333  0.66666667  0.00352592  1
  Ta  Ta23  1  0.33333333  0.66666667  0.25352592  1
  Ta  Ta23  1  0.33333333  0.66666667  0.50352592  1
  Ta  Ta23  1  0.33333333  0.66666667  0.75352592  1
  Ta  Ta23  1  0.33333333  0.91666667  0.00352592  1
  Ta  Ta23  1  0.33333333  0.91666667  0.25352592  1
  Ta  Ta23  1  0.33333333  0.91666667  0.50352592  1
  Ta  Ta23  1  0.33333333  0.91666667  0.75352592  1
  Ta  Ta23  1  0.58333333  0.16666667  0.00352592  1
  Ta  Ta23  1  0.58333333  0.16666667  0.25352592  1
  Ta  Ta23  1  0.58333333  0.16666667  0.50352592  1
  Ta  Ta23  1  0.58333333  0.16666667  0.75352592  1
  Ta  Ta23  1  0.58333333  0.41666667  0.00352592  1
  Ta  Ta23  1  0.58333333  0.41666667  0.25352592  1
  Ta  Ta23  1  0.58333333  0.41666667  0.50352592  1
  Ta  Ta23  1  0.58333333  0.41666667  0.75352592  1
  Ta  Ta23  1  0.58333333  0.66666667  0.00352592  1
  Ta  Ta23  1  0.58333333  0.66666667  0.25352592  1
  Ta  Ta23  1  0.58333333  0.66666667  0.50352592  1
  Ta  Ta23  1  0.58333333  0.66666667  0.75352592  1
  Ta  Ta23  1  0.58333333  0.91666667  0.00352592  1
  Ta  Ta23  1  0.58333333  0.91666667  0.25352592  1
  Ta  Ta23  1  0.58333333  0.91666667  0.50352592  1
  Ta  Ta23  1  0.58333333  0.91666667  0.75352592  1
  Ta  Ta23  1  0.83333333  0.16666667  0.00352592  1
  Ta  Ta23  1  0.83333333  0.16666667  0.25352592  1
  Ta  Ta23  1  0.83333333  0.16666667  0.50352592  1
  Ta  Ta23  1  0.83333333  0.16666667  0.75352592  1
  Ta  Ta23  1  0.83333333  0.41666667  0.00352592  1
  Ta  Ta23  1  0.83333333  0.41666667  0.25352592  1
  Ta  Ta23  1  0.83333333  0.41666667  0.50352592  1
  Ta  Ta23  1  0.83333333  0.41666667  0.75352592  1
  Ta  Ta23  1  0.83333333  0.66666667  0.00352592  1
  Ta  Ta23  1  0.83333333  0.66666667  0.25352592  1
  Ta  Ta23  1  0.83333333  0.66666667  0.50352592  1
  Ta  Ta23  1  0.83333333  0.66666667  0.75352592  1
  Ta  Ta23  1  0.83333333  0.91666667  0.00352592  1
  Ta  Ta23  1  0.83333333  0.91666667  0.25352592  1
  Ta  Ta23  1  0.83333333  0.91666667  0.50352592  1
  Ta  Ta23  1  0.83333333  0.91666667  0.75352592  1
  Ta  Ta24  1  0.08333333  0.16666667  0.07980742  1
  Ta  Ta24  1  0.08333333  0.16666667  0.32980742  1
  Ta  Ta24  1  0.08333333  0.16666667  0.57980742  1
  Ta  Ta24  1  0.08333333  0.16666667  0.82980742  1
  Ta  Ta24  1  0.08333333  0.41666667  0.07980742  1
  Ta  Ta24  1  0.08333333  0.41666667  0.32980742  1
  Ta  Ta24  1  0.08333333  0.41666667  0.57980742  1
  Ta  Ta24  1  0.08333333  0.41666667  0.82980742  1
  Ta  Ta24  1  0.08333333  0.66666667  0.07980742  1
  Ta  Ta24  1  0.08333333  0.66666667  0.32980742  1
  Ta  Ta24  1  0.08333333  0.66666667  0.57980742  1
  Ta  Ta24  1  0.08333333  0.66666667  0.82980742  1
  Ta  Ta24  1  0.08333333  0.91666667  0.07980742  1
  Ta  Ta24  1  0.08333333  0.91666667  0.32980742  1
  Ta  Ta24  1  0.08333333  0.91666667  0.57980742  1
  Ta  Ta24  1  0.08333333  0.91666667  0.82980742  1
  Ta  Ta24  1  0.33333333  0.16666667  0.07980742  1
  Ta  Ta24  1  0.33333333  0.16666667  0.32980742  1
  Ta  Ta24  1  0.33333333  0.16666667  0.57980742  1
  Ta  Ta24  1  0.33333333  0.16666667  0.82980742  1
  Ta  Ta24  1  0.33333333  0.41666667  0.07980742  1
  Ta  Ta24  1  0.33333333  0.41666667  0.32980742  1
  Ta  Ta24  1  0.33333333  0.41666667  0.57980742  1
  Ta  Ta24  1  0.33333333  0.41666667  0.82980742  1
  Ta  Ta24  1  0.33333333  0.66666667  0.07980742  1
  Ta  Ta24  1  0.33333333  0.66666667  0.32980742  1
  Ta  Ta24  1  0.33333333  0.66666667  0.57980742  1
  Ta  Ta24  1  0.33333333  0.66666667  0.82980742  1
  Ta  Ta24  1  0.33333333  0.91666667  0.07980742  1
  Ta  Ta24  1  0.33333333  0.91666667  0.32980742  1
  Ta  Ta24  1  0.33333333  0.91666667  0.57980742  1
  Ta  Ta24  1  0.33333333  0.91666667  0.82980742  1
  Ta  Ta24  1  0.58333333  0.16666667  0.07980742  1
  Ta  Ta24  1  0.58333333  0.16666667  0.32980742  1
  Ta  Ta24  1  0.58333333  0.16666667  0.57980742  1
  Ta  Ta24  1  0.58333333  0.16666667  0.82980742  1
  Ta  Ta24  1  0.58333333  0.41666667  0.07980742  1
  Ta  Ta24  1  0.58333333  0.41666667  0.32980742  1
  Ta  Ta24  1  0.58333333  0.41666667  0.57980742  1
  Ta  Ta24  1  0.58333333  0.41666667  0.82980742  1
  Ta  Ta24  1  0.58333333  0.66666667  0.07980742  1
  Ta  Ta24  1  0.58333333  0.66666667  0.32980742  1
  Ta  Ta24  1  0.58333333  0.66666667  0.57980742  1
  Ta  Ta24  1  0.58333333  0.66666667  0.82980742  1
  Ta  Ta24  1  0.58333333  0.91666667  0.07980742  1
  Ta  Ta24  1  0.58333333  0.91666667  0.32980742  1
  Ta  Ta24  1  0.58333333  0.91666667  0.57980742  1
  Ta  Ta24  1  0.58333333  0.91666667  0.82980742  1
  Ta  Ta24  1  0.83333333  0.16666667  0.07980742  1
  Ta  Ta24  1  0.83333333  0.16666667  0.32980742  1
  Ta  Ta24  1  0.83333333  0.16666667  0.57980742  1
  Ta  Ta24  1  0.83333333  0.16666667  0.82980742  1
  Ta  Ta24  1  0.83333333  0.41666667  0.07980742  1
  Ta  Ta24  1  0.83333333  0.41666667  0.32980742  1
  Ta  Ta24  1  0.83333333  0.41666667  0.57980742  1
  Ta  Ta24  1  0.83333333  0.41666667  0.82980742  1
  Ta  Ta24  1  0.83333333  0.66666667  0.07980742  1
  Ta  Ta24  1  0.83333333  0.66666667  0.32980742  1
  Ta  Ta24  1  0.83333333  0.66666667  0.57980742  1
  Ta  Ta24  1  0.83333333  0.66666667  0.82980742  1
  Ta  Ta24  1  0.83333333  0.91666667  0.07980742  1
  Ta  Ta24  1  0.83333333  0.91666667  0.32980742  1
  Ta  Ta24  1  0.83333333  0.91666667  0.57980742  1
  Ta  Ta24  1  0.83333333  0.91666667  0.82980742  1
  Ta  Ta25  1  0.08333333  0.16666667  0.02925917  1
  Ta  Ta25  1  0.08333333  0.16666667  0.27925917  1
  Ta  Ta25  1  0.08333333  0.16666667  0.52925917  1
  Ta  Ta25  1  0.08333333  0.16666667  0.77925917  1
  Ta  Ta25  1  0.08333333  0.41666667  0.02925917  1
  Ta  Ta25  1  0.08333333  0.41666667  0.27925917  1
  Ta  Ta25  1  0.08333333  0.41666667  0.52925917  1
  Ta  Ta25  1  0.08333333  0.41666667  0.77925917  1
  Ta  Ta25  1  0.08333333  0.66666667  0.02925917  1
  Ta  Ta25  1  0.08333333  0.66666667  0.27925917  1
  Ta  Ta25  1  0.08333333  0.66666667  0.52925917  1
  Ta  Ta25  1  0.08333333  0.66666667  0.77925917  1
  Ta  Ta25  1  0.08333333  0.91666667  0.02925917  1
  Ta  Ta25  1  0.08333333  0.91666667  0.27925917  1
  Ta  Ta25  1  0.08333333  0.91666667  0.52925917  1
  Ta  Ta25  1  0.08333333  0.91666667  0.77925917  1
  Ta  Ta25  1  0.33333333  0.16666667  0.02925917  1
  Ta  Ta25  1  0.33333333  0.16666667  0.27925917  1
  Ta  Ta25  1  0.33333333  0.16666667  0.52925917  1
  Ta  Ta25  1  0.33333333  0.16666667  0.77925917  1
  Ta  Ta25  1  0.33333333  0.41666667  0.02925917  1
  Ta  Ta25  1  0.33333333  0.41666667  0.27925917  1
  Ta  Ta25  1  0.33333333  0.41666667  0.52925917  1
  Ta  Ta25  1  0.33333333  0.41666667  0.77925917  1
  Ta  Ta25  1  0.33333333  0.66666667  0.02925917  1
  Ta  Ta25  1  0.33333333  0.66666667  0.27925917  1
  Ta  Ta25  1  0.33333333  0.66666667  0.52925917  1
  Ta  Ta25  1  0.33333333  0.66666667  0.77925917  1
  Ta  Ta25  1  0.33333333  0.91666667  0.02925917  1
  Ta  Ta25  1  0.33333333  0.91666667  0.27925917  1
  Ta  Ta25  1  0.33333333  0.91666667  0.52925917  1
  Ta  Ta25  1  0.33333333  0.91666667  0.77925917  1
  Ta  Ta25  1  0.58333333  0.16666667  0.02925917  1
  Ta  Ta25  1  0.58333333  0.16666667  0.27925917  1
  Ta  Ta25  1  0.58333333  0.16666667  0.52925917  1
  Ta  Ta25  1  0.58333333  0.16666667  0.77925917  1
  Ta  Ta25  1  0.58333333  0.41666667  0.02925917  1
  Ta  Ta25  1  0.58333333  0.41666667  0.27925917  1
  Ta  Ta25  1  0.58333333  0.41666667  0.52925917  1
  Ta  Ta25  1  0.58333333  0.41666667  0.77925917  1
  Ta  Ta25  1  0.58333333  0.66666667  0.02925917  1
  Ta  Ta25  1  0.58333333  0.66666667  0.27925917  1
  Ta  Ta25  1  0.58333333  0.66666667  0.52925917  1
  Ta  Ta25  1  0.58333333  0.66666667  0.77925917  1
  Ta  Ta25  1  0.58333333  0.91666667  0.02925917  1
  Ta  Ta25  1  0.58333333  0.91666667  0.27925917  1
  Ta  Ta25  1  0.58333333  0.91666667  0.52925917  1
  Ta  Ta25  1  0.58333333  0.91666667  0.77925917  1
  Ta  Ta25  1  0.83333333  0.16666667  0.02925917  1
  Ta  Ta25  1  0.83333333  0.16666667  0.27925917  1
  Ta  Ta25  1  0.83333333  0.16666667  0.52925917  1
  Ta  Ta25  1  0.83333333  0.16666667  0.77925917  1
  Ta  Ta25  1  0.83333333  0.41666667  0.02925917  1
  Ta  Ta25  1  0.83333333  0.41666667  0.27925917  1
  Ta  Ta25  1  0.83333333  0.41666667  0.52925917  1
  Ta  Ta25  1  0.83333333  0.41666667  0.77925917  1
  Ta  Ta25  1  0.83333333  0.66666667  0.02925917  1
  Ta  Ta25  1  0.83333333  0.66666667  0.27925917  1
  Ta  Ta25  1  0.83333333  0.66666667  0.52925917  1
  Ta  Ta25  1  0.83333333  0.66666667  0.77925917  1
  Ta  Ta25  1  0.83333333  0.91666667  0.02925917  1
  Ta  Ta25  1  0.83333333  0.91666667  0.27925917  1
  Ta  Ta25  1  0.83333333  0.91666667  0.52925917  1
  Ta  Ta25  1  0.83333333  0.91666667  0.77925917  1
  Ta  Ta26  1  0.08333333  0.16666667  0.05407417  1
  Ta  Ta26  1  0.08333333  0.16666667  0.30407417  1
  Ta  Ta26  1  0.08333333  0.16666667  0.55407417  1
  Ta  Ta26  1  0.08333333  0.16666667  0.80407417  1
  Ta  Ta26  1  0.08333333  0.41666667  0.05407417  1
  Ta  Ta26  1  0.08333333  0.41666667  0.30407417  1
  Ta  Ta26  1  0.08333333  0.41666667  0.55407417  1
  Ta  Ta26  1  0.08333333  0.41666667  0.80407417  1
  Ta  Ta26  1  0.08333333  0.66666667  0.05407417  1
  Ta  Ta26  1  0.08333333  0.66666667  0.30407417  1
  Ta  Ta26  1  0.08333333  0.66666667  0.55407417  1
  Ta  Ta26  1  0.08333333  0.66666667  0.80407417  1
  Ta  Ta26  1  0.08333333  0.91666667  0.05407417  1
  Ta  Ta26  1  0.08333333  0.91666667  0.30407417  1
  Ta  Ta26  1  0.08333333  0.91666667  0.55407417  1
  Ta  Ta26  1  0.08333333  0.91666667  0.80407417  1
  Ta  Ta26  1  0.33333333  0.16666667  0.05407417  1
  Ta  Ta26  1  0.33333333  0.16666667  0.30407417  1
  Ta  Ta26  1  0.33333333  0.16666667  0.55407417  1
  Ta  Ta26  1  0.33333333  0.16666667  0.80407417  1
  Ta  Ta26  1  0.33333333  0.41666667  0.05407417  1
  Ta  Ta26  1  0.33333333  0.41666667  0.30407417  1
  Ta  Ta26  1  0.33333333  0.41666667  0.55407417  1
  Ta  Ta26  1  0.33333333  0.41666667  0.80407417  1
  Ta  Ta26  1  0.33333333  0.66666667  0.05407417  1
  Ta  Ta26  1  0.33333333  0.66666667  0.30407417  1
  Ta  Ta26  1  0.33333333  0.66666667  0.55407417  1
  Ta  Ta26  1  0.33333333  0.66666667  0.80407417  1
  Ta  Ta26  1  0.33333333  0.91666667  0.05407417  1
  Ta  Ta26  1  0.33333333  0.91666667  0.30407417  1
  Ta  Ta26  1  0.33333333  0.91666667  0.55407417  1
  Ta  Ta26  1  0.33333333  0.91666667  0.80407417  1
  Ta  Ta26  1  0.58333333  0.16666667  0.05407417  1
  Ta  Ta26  1  0.58333333  0.16666667  0.30407417  1
  Ta  Ta26  1  0.58333333  0.16666667  0.55407417  1
  Ta  Ta26  1  0.58333333  0.16666667  0.80407417  1
  Ta  Ta26  1  0.58333333  0.41666667  0.05407417  1
  Ta  Ta26  1  0.58333333  0.41666667  0.30407417  1
  Ta  Ta26  1  0.58333333  0.41666667  0.55407417  1
  Ta  Ta26  1  0.58333333  0.41666667  0.80407417  1
  Ta  Ta26  1  0.58333333  0.66666667  0.05407417  1
  Ta  Ta26  1  0.58333333  0.66666667  0.30407417  1
  Ta  Ta26  1  0.58333333  0.66666667  0.55407417  1
  Ta  Ta26  1  0.58333333  0.66666667  0.80407417  1
  Ta  Ta26  1  0.58333333  0.91666667  0.05407417  1
  Ta  Ta26  1  0.58333333  0.91666667  0.30407417  1
  Ta  Ta26  1  0.58333333  0.91666667  0.55407417  1
  Ta  Ta26  1  0.58333333  0.91666667  0.80407417  1
  Ta  Ta26  1  0.83333333  0.16666667  0.05407417  1
  Ta  Ta26  1  0.83333333  0.16666667  0.30407417  1
  Ta  Ta26  1  0.83333333  0.16666667  0.55407417  1
  Ta  Ta26  1  0.83333333  0.16666667  0.80407417  1
  Ta  Ta26  1  0.83333333  0.41666667  0.05407417  1
  Ta  Ta26  1  0.83333333  0.41666667  0.30407417  1
  Ta  Ta26  1  0.83333333  0.41666667  0.55407417  1
  Ta  Ta26  1  0.83333333  0.41666667  0.80407417  1
  Ta  Ta26  1  0.83333333  0.66666667  0.05407417  1
  Ta  Ta26  1  0.83333333  0.66666667  0.30407417  1
  Ta  Ta26  1  0.83333333  0.66666667  0.55407417  1
  Ta  Ta26  1  0.83333333  0.66666667  0.80407417  1
  Ta  Ta26  1  0.83333333  0.91666667  0.05407417  1
  Ta  Ta26  1  0.83333333  0.91666667  0.30407417  1
  Ta  Ta26  1  0.83333333  0.91666667  0.55407417  1
  Ta  Ta26  1  0.83333333  0.91666667  0.80407417  1
  Ta  Ta27  1  0.16666667  0.08333333  0.12485833  1
  Ta  Ta27  1  0.16666667  0.08333333  0.37485833  1
  Ta  Ta27  1  0.16666667  0.08333333  0.62485833  1
  Ta  Ta27  1  0.16666667  0.08333333  0.87485833  1
  Ta  Ta27  1  0.16666667  0.33333333  0.12485833  1
  Ta  Ta27  1  0.16666667  0.33333333  0.37485833  1
  Ta  Ta27  1  0.16666667  0.33333333  0.62485833  1
  Ta  Ta27  1  0.16666667  0.33333333  0.87485833  1
  Ta  Ta27  1  0.16666667  0.58333333  0.12485833  1
  Ta  Ta27  1  0.16666667  0.58333333  0.37485833  1
  Ta  Ta27  1  0.16666667  0.58333333  0.62485833  1
  Ta  Ta27  1  0.16666667  0.58333333  0.87485833  1
  Ta  Ta27  1  0.16666667  0.83333333  0.12485833  1
  Ta  Ta27  1  0.16666667  0.83333333  0.37485833  1
  Ta  Ta27  1  0.16666667  0.83333333  0.62485833  1
  Ta  Ta27  1  0.16666667  0.83333333  0.87485833  1
  Ta  Ta27  1  0.41666667  0.08333333  0.12485833  1
  Ta  Ta27  1  0.41666667  0.08333333  0.37485833  1
  Ta  Ta27  1  0.41666667  0.08333333  0.62485833  1
  Ta  Ta27  1  0.41666667  0.08333333  0.87485833  1
  Ta  Ta27  1  0.41666667  0.33333333  0.12485833  1
  Ta  Ta27  1  0.41666667  0.33333333  0.37485833  1
  Ta  Ta27  1  0.41666667  0.33333333  0.62485833  1
  Ta  Ta27  1  0.41666667  0.33333333  0.87485833  1
  Ta  Ta27  1  0.41666667  0.58333333  0.12485833  1
  Ta  Ta27  1  0.41666667  0.58333333  0.37485833  1
  Ta  Ta27  1  0.41666667  0.58333333  0.62485833  1
  Ta  Ta27  1  0.41666667  0.58333333  0.87485833  1
  Ta  Ta27  1  0.41666667  0.83333333  0.12485833  1
  Ta  Ta27  1  0.41666667  0.83333333  0.37485833  1
  Ta  Ta27  1  0.41666667  0.83333333  0.62485833  1
  Ta  Ta27  1  0.41666667  0.83333333  0.87485833  1
  Ta  Ta27  1  0.66666667  0.08333333  0.12485833  1
  Ta  Ta27  1  0.66666667  0.08333333  0.37485833  1
  Ta  Ta27  1  0.66666667  0.08333333  0.62485833  1
  Ta  Ta27  1  0.66666667  0.08333333  0.87485833  1
  Ta  Ta27  1  0.66666667  0.33333333  0.12485833  1
  Ta  Ta27  1  0.66666667  0.33333333  0.37485833  1
  Ta  Ta27  1  0.66666667  0.33333333  0.62485833  1
  Ta  Ta27  1  0.66666667  0.33333333  0.87485833  1
  Ta  Ta27  1  0.66666667  0.58333333  0.12485833  1
  Ta  Ta27  1  0.66666667  0.58333333  0.37485833  1
  Ta  Ta27  1  0.66666667  0.58333333  0.62485833  1
  Ta  Ta27  1  0.66666667  0.58333333  0.87485833  1
  Ta  Ta27  1  0.66666667  0.83333333  0.12485833  1
  Ta  Ta27  1  0.66666667  0.83333333  0.37485833  1
  Ta  Ta27  1  0.66666667  0.83333333  0.62485833  1
  Ta  Ta27  1  0.66666667  0.83333333  0.87485833  1
  Ta  Ta27  1  0.91666667  0.08333333  0.12485833  1
  Ta  Ta27  1  0.91666667  0.08333333  0.37485833  1
  Ta  Ta27  1  0.91666667  0.08333333  0.62485833  1
  Ta  Ta27  1  0.91666667  0.08333333  0.87485833  1
  Ta  Ta27  1  0.91666667  0.33333333  0.12485833  1
  Ta  Ta27  1  0.91666667  0.33333333  0.37485833  1
  Ta  Ta27  1  0.91666667  0.33333333  0.62485833  1
  Ta  Ta27  1  0.91666667  0.33333333  0.87485833  1
  Ta  Ta27  1  0.91666667  0.58333333  0.12485833  1
  Ta  Ta27  1  0.91666667  0.58333333  0.37485833  1
  Ta  Ta27  1  0.91666667  0.58333333  0.62485833  1
  Ta  Ta27  1  0.91666667  0.58333333  0.87485833  1
  Ta  Ta27  1  0.91666667  0.83333333  0.12485833  1
  Ta  Ta27  1  0.91666667  0.83333333  0.37485833  1
  Ta  Ta27  1  0.91666667  0.83333333  0.62485833  1
  Ta  Ta27  1  0.91666667  0.83333333  0.87485833  1
  Ta  Ta28  1  0.08333333  0.16666667  0.12514167  1
  Ta  Ta28  1  0.08333333  0.16666667  0.37514167  1
  Ta  Ta28  1  0.08333333  0.16666667  0.62514167  1
  Ta  Ta28  1  0.08333333  0.16666667  0.87514167  1
  Ta  Ta28  1  0.08333333  0.41666667  0.12514167  1
  Ta  Ta28  1  0.08333333  0.41666667  0.37514167  1
  Ta  Ta28  1  0.08333333  0.41666667  0.62514167  1
  Ta  Ta28  1  0.08333333  0.41666667  0.87514167  1
  Ta  Ta28  1  0.08333333  0.66666667  0.12514167  1
  Ta  Ta28  1  0.08333333  0.66666667  0.37514167  1
  Ta  Ta28  1  0.08333333  0.66666667  0.62514167  1
  Ta  Ta28  1  0.08333333  0.66666667  0.87514167  1
  Ta  Ta28  1  0.08333333  0.91666667  0.12514167  1
  Ta  Ta28  1  0.08333333  0.91666667  0.37514167  1
  Ta  Ta28  1  0.08333333  0.91666667  0.62514167  1
  Ta  Ta28  1  0.08333333  0.91666667  0.87514167  1
  Ta  Ta28  1  0.33333333  0.16666667  0.12514167  1
  Ta  Ta28  1  0.33333333  0.16666667  0.37514167  1
  Ta  Ta28  1  0.33333333  0.16666667  0.62514167  1
  Ta  Ta28  1  0.33333333  0.16666667  0.87514167  1
  Ta  Ta28  1  0.33333333  0.41666667  0.12514167  1
  Ta  Ta28  1  0.33333333  0.41666667  0.37514167  1
  Ta  Ta28  1  0.33333333  0.41666667  0.62514167  1
  Ta  Ta28  1  0.33333333  0.41666667  0.87514167  1
  Ta  Ta28  1  0.33333333  0.66666667  0.12514167  1
  Ta  Ta28  1  0.33333333  0.66666667  0.37514167  1
  Ta  Ta28  1  0.33333333  0.66666667  0.62514167  1
  Ta  Ta28  1  0.33333333  0.66666667  0.87514167  1
  Ta  Ta28  1  0.33333333  0.91666667  0.12514167  1
  Ta  Ta28  1  0.33333333  0.91666667  0.37514167  1
  Ta  Ta28  1  0.33333333  0.91666667  0.62514167  1
  Ta  Ta28  1  0.33333333  0.91666667  0.87514167  1
  Ta  Ta28  1  0.58333333  0.16666667  0.12514167  1
  Ta  Ta28  1  0.58333333  0.16666667  0.37514167  1
  Ta  Ta28  1  0.58333333  0.16666667  0.62514167  1
  Ta  Ta28  1  0.58333333  0.16666667  0.87514167  1
  Ta  Ta28  1  0.58333333  0.41666667  0.12514167  1
  Ta  Ta28  1  0.58333333  0.41666667  0.37514167  1
  Ta  Ta28  1  0.58333333  0.41666667  0.62514167  1
  Ta  Ta28  1  0.58333333  0.41666667  0.87514167  1
  Ta  Ta28  1  0.58333333  0.66666667  0.12514167  1
  Ta  Ta28  1  0.58333333  0.66666667  0.37514167  1
  Ta  Ta28  1  0.58333333  0.66666667  0.62514167  1
  Ta  Ta28  1  0.58333333  0.66666667  0.87514167  1
  Ta  Ta28  1  0.58333333  0.91666667  0.12514167  1
  Ta  Ta28  1  0.58333333  0.91666667  0.37514167  1
  Ta  Ta28  1  0.58333333  0.91666667  0.62514167  1
  Ta  Ta28  1  0.58333333  0.91666667  0.87514167  1
  Ta  Ta28  1  0.83333333  0.16666667  0.12514167  1
  Ta  Ta28  1  0.83333333  0.16666667  0.37514167  1
  Ta  Ta28  1  0.83333333  0.16666667  0.62514167  1
  Ta  Ta28  1  0.83333333  0.16666667  0.87514167  1
  Ta  Ta28  1  0.83333333  0.41666667  0.12514167  1
  Ta  Ta28  1  0.83333333  0.41666667  0.37514167  1
  Ta  Ta28  1  0.83333333  0.41666667  0.62514167  1
  Ta  Ta28  1  0.83333333  0.41666667  0.87514167  1
  Ta  Ta28  1  0.83333333  0.66666667  0.12514167  1
  Ta  Ta28  1  0.83333333  0.66666667  0.37514167  1
  Ta  Ta28  1  0.83333333  0.66666667  0.62514167  1
  Ta  Ta28  1  0.83333333  0.66666667  0.87514167  1
  Ta  Ta28  1  0.83333333  0.91666667  0.12514167  1
  Ta  Ta28  1  0.83333333  0.91666667  0.37514167  1
  Ta  Ta28  1  0.83333333  0.91666667  0.62514167  1
  Ta  Ta28  1  0.83333333  0.91666667  0.87514167  1
  Ta  Ta29  1  0.00000000  0.00000000  0.08685925  1
  Ta  Ta29  1  0.00000000  0.00000000  0.33685925  1
  Ta  Ta29  1  0.00000000  0.00000000  0.58685925  1
  Ta  Ta29  1  0.00000000  0.00000000  0.83685925  1
  Ta  Ta29  1  0.00000000  0.25000000  0.08685925  1
  Ta  Ta29  1  0.00000000  0.25000000  0.33685925  1
  Ta  Ta29  1  0.00000000  0.25000000  0.58685925  1
  Ta  Ta29  1  0.00000000  0.25000000  0.83685925  1
  Ta  Ta29  1  0.00000000  0.50000000  0.08685925  1
  Ta  Ta29  1  0.00000000  0.50000000  0.33685925  1
  Ta  Ta29  1  0.00000000  0.50000000  0.58685925  1
  Ta  Ta29  1  0.00000000  0.50000000  0.83685925  1
  Ta  Ta29  1  0.00000000  0.75000000  0.08685925  1
  Ta  Ta29  1  0.00000000  0.75000000  0.33685925  1
  Ta  Ta29  1  0.00000000  0.75000000  0.58685925  1
  Ta  Ta29  1  0.00000000  0.75000000  0.83685925  1
  Ta  Ta29  1  0.25000000  0.00000000  0.08685925  1
  Ta  Ta29  1  0.25000000  0.00000000  0.33685925  1
  Ta  Ta29  1  0.25000000  0.00000000  0.58685925  1
  Ta  Ta29  1  0.25000000  0.00000000  0.83685925  1
  Ta  Ta29  1  0.25000000  0.25000000  0.08685925  1
  Ta  Ta29  1  0.25000000  0.25000000  0.33685925  1
  Ta  Ta29  1  0.25000000  0.25000000  0.58685925  1
  Ta  Ta29  1  0.25000000  0.25000000  0.83685925  1
  Ta  Ta29  1  0.25000000  0.50000000  0.08685925  1
  Ta  Ta29  1  0.25000000  0.50000000  0.33685925  1
  Ta  Ta29  1  0.25000000  0.50000000  0.58685925  1
  Ta  Ta29  1  0.25000000  0.50000000  0.83685925  1
  Ta  Ta29  1  0.25000000  0.75000000  0.08685925  1
  Ta  Ta29  1  0.25000000  0.75000000  0.33685925  1
  Ta  Ta29  1  0.25000000  0.75000000  0.58685925  1
  Ta  Ta29  1  0.25000000  0.75000000  0.83685925  1
  Ta  Ta29  1  0.50000000  0.00000000  0.08685925  1
  Ta  Ta29  1  0.50000000  0.00000000  0.33685925  1
  Ta  Ta29  1  0.50000000  0.00000000  0.58685925  1
  Ta  Ta29  1  0.50000000  0.00000000  0.83685925  1
  Ta  Ta29  1  0.50000000  0.25000000  0.08685925  1
  Ta  Ta29  1  0.50000000  0.25000000  0.33685925  1
  Ta  Ta29  1  0.50000000  0.25000000  0.58685925  1
  Ta  Ta29  1  0.50000000  0.25000000  0.83685925  1
  Ta  Ta29  1  0.50000000  0.50000000  0.08685925  1
  Ta  Ta29  1  0.50000000  0.50000000  0.33685925  1
  Ta  Ta29  1  0.50000000  0.50000000  0.58685925  1
  Ta  Ta29  1  0.50000000  0.50000000  0.83685925  1
  Ta  Ta29  1  0.50000000  0.75000000  0.08685925  1
  Ta  Ta29  1  0.50000000  0.75000000  0.33685925  1
  Ta  Ta29  1  0.50000000  0.75000000  0.58685925  1
  Ta  Ta29  1  0.50000000  0.75000000  0.83685925  1
  Ta  Ta29  1  0.75000000  0.00000000  0.08685925  1
  Ta  Ta29  1  0.75000000  0.00000000  0.33685925  1
  Ta  Ta29  1  0.75000000  0.00000000  0.58685925  1
  Ta  Ta29  1  0.75000000  0.00000000  0.83685925  1
  Ta  Ta29  1  0.75000000  0.25000000  0.08685925  1
  Ta  Ta29  1  0.75000000  0.25000000  0.33685925  1
  Ta  Ta29  1  0.75000000  0.25000000  0.58685925  1
  Ta  Ta29  1  0.75000000  0.25000000  0.83685925  1
  Ta  Ta29  1  0.75000000  0.50000000  0.08685925  1
  Ta  Ta29  1  0.75000000  0.50000000  0.33685925  1
  Ta  Ta29  1  0.75000000  0.50000000  0.58685925  1
  Ta  Ta29  1  0.75000000  0.50000000  0.83685925  1
  Ta  Ta29  1  0.75000000  0.75000000  0.08685925  1
  Ta  Ta29  1  0.75000000  0.75000000  0.33685925  1
  Ta  Ta29  1  0.75000000  0.75000000  0.58685925  1
  Ta  Ta29  1  0.75000000  0.75000000  0.83685925  1
  Ta  Ta30  1  0.00000000  0.00000000  0.16314075  1
  Ta  Ta30  1  0.00000000  0.00000000  0.41314075  1
  Ta  Ta30  1  0.00000000  0.00000000  0.66314075  1
  Ta  Ta30  1  0.00000000  0.00000000  0.91314075  1
  Ta  Ta30  1  0.00000000  0.25000000  0.16314075  1
  Ta  Ta30  1  0.00000000  0.25000000  0.41314075  1
  Ta  Ta30  1  0.00000000  0.25000000  0.66314075  1
  Ta  Ta30  1  0.00000000  0.25000000  0.91314075  1
  Ta  Ta30  1  0.00000000  0.50000000  0.16314075  1
  Ta  Ta30  1  0.00000000  0.50000000  0.41314075  1
  Ta  Ta30  1  0.00000000  0.50000000  0.66314075  1
  Ta  Ta30  1  0.00000000  0.50000000  0.91314075  1
  Ta  Ta30  1  0.00000000  0.75000000  0.16314075  1
  Ta  Ta30  1  0.00000000  0.75000000  0.41314075  1
  Ta  Ta30  1  0.00000000  0.75000000  0.66314075  1
  Ta  Ta30  1  0.00000000  0.75000000  0.91314075  1
  Ta  Ta30  1  0.25000000  0.00000000  0.16314075  1
  Ta  Ta30  1  0.25000000  0.00000000  0.41314075  1
  Ta  Ta30  1  0.25000000  0.00000000  0.66314075  1
  Ta  Ta30  1  0.25000000  0.00000000  0.91314075  1
  Ta  Ta30  1  0.25000000  0.25000000  0.16314075  1
  Ta  Ta30  1  0.25000000  0.25000000  0.41314075  1
  Ta  Ta30  1  0.25000000  0.25000000  0.66314075  1
  Ta  Ta30  1  0.25000000  0.25000000  0.91314075  1
  Ta  Ta30  1  0.25000000  0.50000000  0.16314075  1
  Ta  Ta30  1  0.25000000  0.50000000  0.41314075  1
  Ta  Ta30  1  0.25000000  0.50000000  0.66314075  1
  Ta  Ta30  1  0.25000000  0.50000000  0.91314075  1
  Ta  Ta30  1  0.25000000  0.75000000  0.16314075  1
  Ta  Ta30  1  0.25000000  0.75000000  0.41314075  1
  Ta  Ta30  1  0.25000000  0.75000000  0.66314075  1
  Ta  Ta30  1  0.25000000  0.75000000  0.91314075  1
  Ta  Ta30  1  0.50000000  0.00000000  0.16314075  1
  Ta  Ta30  1  0.50000000  0.00000000  0.41314075  1
  Ta  Ta30  1  0.50000000  0.00000000  0.66314075  1
  Ta  Ta30  1  0.50000000  0.00000000  0.91314075  1
  Ta  Ta30  1  0.50000000  0.25000000  0.16314075  1
  Ta  Ta30  1  0.50000000  0.25000000  0.41314075  1
  Ta  Ta30  1  0.50000000  0.25000000  0.66314075  1
  Ta  Ta30  1  0.50000000  0.25000000  0.91314075  1
  Ta  Ta30  1  0.50000000  0.50000000  0.16314075  1
  Ta  Ta30  1  0.50000000  0.50000000  0.41314075  1
  Ta  Ta30  1  0.50000000  0.50000000  0.66314075  1
  Ta  Ta30  1  0.50000000  0.50000000  0.91314075  1
  Ta  Ta30  1  0.50000000  0.75000000  0.16314075  1
  Ta  Ta30  1  0.50000000  0.75000000  0.41314075  1
  Ta  Ta30  1  0.50000000  0.75000000  0.66314075  1
  Ta  Ta30  1  0.50000000  0.75000000  0.91314075  1
  Ta  Ta30  1  0.75000000  0.00000000  0.16314075  1
  Ta  Ta30  1  0.75000000  0.00000000  0.41314075  1
  Ta  Ta30  1  0.75000000  0.00000000  0.66314075  1
  Ta  Ta30  1  0.75000000  0.00000000  0.91314075  1
  Ta  Ta30  1  0.75000000  0.25000000  0.16314075  1
  Ta  Ta30  1  0.75000000  0.25000000  0.41314075  1
  Ta  Ta30  1  0.75000000  0.25000000  0.66314075  1
  Ta  Ta30  1  0.75000000  0.25000000  0.91314075  1
  Ta  Ta30  1  0.75000000  0.50000000  0.16314075  1
  Ta  Ta30  1  0.75000000  0.50000000  0.41314075  1
  Ta  Ta30  1  0.75000000  0.50000000  0.66314075  1
  Ta  Ta30  1  0.75000000  0.50000000  0.91314075  1
  Ta  Ta30  1  0.75000000  0.75000000  0.16314075  1
  Ta  Ta30  1  0.75000000  0.75000000  0.41314075  1
  Ta  Ta30  1  0.75000000  0.75000000  0.66314075  1
  Ta  Ta30  1  0.75000000  0.75000000  0.91314075  1
  Ta  Ta31  1  0.00000000  0.00000000  0.11259250  1
  Ta  Ta31  1  0.00000000  0.00000000  0.36259250  1
  Ta  Ta31  1  0.00000000  0.00000000  0.61259250  1
  Ta  Ta31  1  0.00000000  0.00000000  0.86259250  1
  Ta  Ta31  1  0.00000000  0.25000000  0.11259250  1
  Ta  Ta31  1  0.00000000  0.25000000  0.36259250  1
  Ta  Ta31  1  0.00000000  0.25000000  0.61259250  1
  Ta  Ta31  1  0.00000000  0.25000000  0.86259250  1
  Ta  Ta31  1  0.00000000  0.50000000  0.11259250  1
  Ta  Ta31  1  0.00000000  0.50000000  0.36259250  1
  Ta  Ta31  1  0.00000000  0.50000000  0.61259250  1
  Ta  Ta31  1  0.00000000  0.50000000  0.86259250  1
  Ta  Ta31  1  0.00000000  0.75000000  0.11259250  1
  Ta  Ta31  1  0.00000000  0.75000000  0.36259250  1
  Ta  Ta31  1  0.00000000  0.75000000  0.61259250  1
  Ta  Ta31  1  0.00000000  0.75000000  0.86259250  1
  Ta  Ta31  1  0.25000000  0.00000000  0.11259250  1
  Ta  Ta31  1  0.25000000  0.00000000  0.36259250  1
  Ta  Ta31  1  0.25000000  0.00000000  0.61259250  1
  Ta  Ta31  1  0.25000000  0.00000000  0.86259250  1
  Ta  Ta31  1  0.25000000  0.25000000  0.11259250  1
  Ta  Ta31  1  0.25000000  0.25000000  0.36259250  1
  Ta  Ta31  1  0.25000000  0.25000000  0.61259250  1
  Ta  Ta31  1  0.25000000  0.25000000  0.86259250  1
  Ta  Ta31  1  0.25000000  0.50000000  0.11259250  1
  Ta  Ta31  1  0.25000000  0.50000000  0.36259250  1
  Ta  Ta31  1  0.25000000  0.50000000  0.61259250  1
  Ta  Ta31  1  0.25000000  0.50000000  0.86259250  1
  Ta  Ta31  1  0.25000000  0.75000000  0.11259250  1
  Ta  Ta31  1  0.25000000  0.75000000  0.36259250  1
  Ta  Ta31  1  0.25000000  0.75000000  0.61259250  1
  Ta  Ta31  1  0.25000000  0.75000000  0.86259250  1
  Ta  Ta31  1  0.50000000  0.00000000  0.11259250  1
  Ta  Ta31  1  0.50000000  0.00000000  0.36259250  1
  Ta  Ta31  1  0.50000000  0.00000000  0.61259250  1
  Ta  Ta31  1  0.50000000  0.00000000  0.86259250  1
  Ta  Ta31  1  0.50000000  0.25000000  0.11259250  1
  Ta  Ta31  1  0.50000000  0.25000000  0.36259250  1
  Ta  Ta31  1  0.50000000  0.25000000  0.61259250  1
  Ta  Ta31  1  0.50000000  0.25000000  0.86259250  1
  Ta  Ta31  1  0.50000000  0.50000000  0.11259250  1
  Ta  Ta31  1  0.50000000  0.50000000  0.36259250  1
  Ta  Ta31  1  0.50000000  0.50000000  0.61259250  1
  Ta  Ta31  1  0.50000000  0.50000000  0.86259250  1
  Ta  Ta31  1  0.50000000  0.75000000  0.11259250  1
  Ta  Ta31  1  0.50000000  0.75000000  0.36259250  1
  Ta  Ta31  1  0.50000000  0.75000000  0.61259250  1
  Ta  Ta31  1  0.50000000  0.75000000  0.86259250  1
  Ta  Ta31  1  0.75000000  0.00000000  0.11259250  1
  Ta  Ta31  1  0.75000000  0.00000000  0.36259250  1
  Ta  Ta31  1  0.75000000  0.00000000  0.61259250  1
  Ta  Ta31  1  0.75000000  0.00000000  0.86259250  1
  Ta  Ta31  1  0.75000000  0.25000000  0.11259250  1
  Ta  Ta31  1  0.75000000  0.25000000  0.36259250  1
  Ta  Ta31  1  0.75000000  0.25000000  0.61259250  1
  Ta  Ta31  1  0.75000000  0.25000000  0.86259250  1
  Ta  Ta31  1  0.75000000  0.50000000  0.11259250  1
  Ta  Ta31  1  0.75000000  0.50000000  0.36259250  1
  Ta  Ta31  1  0.75000000  0.50000000  0.61259250  1
  Ta  Ta31  1  0.75000000  0.50000000  0.86259250  1
  Ta  Ta31  1  0.75000000  0.75000000  0.11259250  1
  Ta  Ta31  1  0.75000000  0.75000000  0.36259250  1
  Ta  Ta31  1  0.75000000  0.75000000  0.61259250  1
  Ta  Ta31  1  0.75000000  0.75000000  0.86259250  1
  Ta  Ta32  1  0.00000000  0.00000000  0.13740750  1
  Ta  Ta32  1  0.00000000  0.00000000  0.38740750  1
  Ta  Ta32  1  0.00000000  0.00000000  0.63740750  1
  Ta  Ta32  1  0.00000000  0.00000000  0.88740750  1
  Ta  Ta32  1  0.00000000  0.25000000  0.13740750  1
  Ta  Ta32  1  0.00000000  0.25000000  0.38740750  1
  Ta  Ta32  1  0.00000000  0.25000000  0.63740750  1
  Ta  Ta32  1  0.00000000  0.25000000  0.88740750  1
  Ta  Ta32  1  0.00000000  0.50000000  0.13740750  1
  Ta  Ta32  1  0.00000000  0.50000000  0.38740750  1
  Ta  Ta32  1  0.00000000  0.50000000  0.63740750  1
  Ta  Ta32  1  0.00000000  0.50000000  0.88740750  1
  Ta  Ta32  1  0.00000000  0.75000000  0.13740750  1
  Ta  Ta32  1  0.00000000  0.75000000  0.38740750  1
  Ta  Ta32  1  0.00000000  0.75000000  0.63740750  1
  Ta  Ta32  1  0.00000000  0.75000000  0.88740750  1
  Ta  Ta32  1  0.25000000  0.00000000  0.13740750  1
  Ta  Ta32  1  0.25000000  0.00000000  0.38740750  1
  Ta  Ta32  1  0.25000000  0.00000000  0.63740750  1
  Ta  Ta32  1  0.25000000  0.00000000  0.88740750  1
  Ta  Ta32  1  0.25000000  0.25000000  0.13740750  1
  Ta  Ta32  1  0.25000000  0.25000000  0.38740750  1
  Ta  Ta32  1  0.25000000  0.25000000  0.63740750  1
  Ta  Ta32  1  0.25000000  0.25000000  0.88740750  1
  Ta  Ta32  1  0.25000000  0.50000000  0.13740750  1
  Ta  Ta32  1  0.25000000  0.50000000  0.38740750  1
  Ta  Ta32  1  0.25000000  0.50000000  0.63740750  1
  Ta  Ta32  1  0.25000000  0.50000000  0.88740750  1
  Ta  Ta32  1  0.25000000  0.75000000  0.13740750  1
  Ta  Ta32  1  0.25000000  0.75000000  0.38740750  1
  Ta  Ta32  1  0.25000000  0.75000000  0.63740750  1
  Ta  Ta32  1  0.25000000  0.75000000  0.88740750  1
  Ta  Ta32  1  0.50000000  0.00000000  0.13740750  1
  Ta  Ta32  1  0.50000000  0.00000000  0.38740750  1
  Ta  Ta32  1  0.50000000  0.00000000  0.63740750  1
  Ta  Ta32  1  0.50000000  0.00000000  0.88740750  1
  Ta  Ta32  1  0.50000000  0.25000000  0.13740750  1
  Ta  Ta32  1  0.50000000  0.25000000  0.38740750  1
  Ta  Ta32  1  0.50000000  0.25000000  0.63740750  1
  Ta  Ta32  1  0.50000000  0.25000000  0.88740750  1
  Ta  Ta32  1  0.50000000  0.50000000  0.13740750  1
  Ta  Ta32  1  0.50000000  0.50000000  0.38740750  1
  Ta  Ta32  1  0.50000000  0.50000000  0.63740750  1
  Ta  Ta32  1  0.50000000  0.50000000  0.88740750  1
  Ta  Ta32  1  0.50000000  0.75000000  0.13740750  1
  Ta  Ta32  1  0.50000000  0.75000000  0.38740750  1
  Ta  Ta32  1  0.50000000  0.75000000  0.63740750  1
  Ta  Ta32  1  0.50000000  0.75000000  0.88740750  1
  Ta  Ta32  1  0.75000000  0.00000000  0.13740750  1
  Ta  Ta32  1  0.75000000  0.00000000  0.38740750  1
  Ta  Ta32  1  0.75000000  0.00000000  0.63740750  1
  Ta  Ta32  1  0.75000000  0.00000000  0.88740750  1
  Ta  Ta32  1  0.75000000  0.25000000  0.13740750  1
  Ta  Ta32  1  0.75000000  0.25000000  0.38740750  1
  Ta  Ta32  1  0.75000000  0.25000000  0.63740750  1
  Ta  Ta32  1  0.75000000  0.25000000  0.88740750  1
  Ta  Ta32  1  0.75000000  0.50000000  0.13740750  1
  Ta  Ta32  1  0.75000000  0.50000000  0.38740750  1
  Ta  Ta32  1  0.75000000  0.50000000  0.63740750  1
  Ta  Ta32  1  0.75000000  0.50000000  0.88740750  1
  Ta  Ta32  1  0.75000000  0.75000000  0.13740750  1
  Ta  Ta32  1  0.75000000  0.75000000  0.38740750  1
  Ta  Ta32  1  0.75000000  0.75000000  0.63740750  1
  Ta  Ta32  1  0.75000000  0.75000000  0.88740750  1
  Ta  Ta33  1  0.08333333  0.16666667  0.20819167  1
  Ta  Ta33  1  0.08333333  0.16666667  0.45819167  1
  Ta  Ta33  1  0.08333333  0.16666667  0.70819167  1
  Ta  Ta33  1  0.08333333  0.16666667  0.95819167  1
  Ta  Ta33  1  0.08333333  0.41666667  0.20819167  1
  Ta  Ta33  1  0.08333333  0.41666667  0.45819167  1
  Ta  Ta33  1  0.08333333  0.41666667  0.70819167  1
  Ta  Ta33  1  0.08333333  0.41666667  0.95819167  1
  Ta  Ta33  1  0.08333333  0.66666667  0.20819167  1
  Ta  Ta33  1  0.08333333  0.66666667  0.45819167  1
  Ta  Ta33  1  0.08333333  0.66666667  0.70819167  1
  Ta  Ta33  1  0.08333333  0.66666667  0.95819167  1
  Ta  Ta33  1  0.08333333  0.91666667  0.20819167  1
  Ta  Ta33  1  0.08333333  0.91666667  0.45819167  1
  Ta  Ta33  1  0.08333333  0.91666667  0.70819167  1
  Ta  Ta33  1  0.08333333  0.91666667  0.95819167  1
  Ta  Ta33  1  0.33333333  0.16666667  0.20819167  1
  Ta  Ta33  1  0.33333333  0.16666667  0.45819167  1
  Ta  Ta33  1  0.33333333  0.16666667  0.70819167  1
  Ta  Ta33  1  0.33333333  0.16666667  0.95819167  1
  Ta  Ta33  1  0.33333333  0.41666667  0.20819167  1
  Ta  Ta33  1  0.33333333  0.41666667  0.45819167  1
  Ta  Ta33  1  0.33333333  0.41666667  0.70819167  1
  Ta  Ta33  1  0.33333333  0.41666667  0.95819167  1
  Ta  Ta33  1  0.33333333  0.66666667  0.20819167  1
  Ta  Ta33  1  0.33333333  0.66666667  0.45819167  1
  Ta  Ta33  1  0.33333333  0.66666667  0.70819167  1
  Ta  Ta33  1  0.33333333  0.66666667  0.95819167  1
  Ta  Ta33  1  0.33333333  0.91666667  0.20819167  1
  Ta  Ta33  1  0.33333333  0.91666667  0.45819167  1
  Ta  Ta33  1  0.33333333  0.91666667  0.70819167  1
  Ta  Ta33  1  0.33333333  0.91666667  0.95819167  1
  Ta  Ta33  1  0.58333333  0.16666667  0.20819167  1
  Ta  Ta33  1  0.58333333  0.16666667  0.45819167  1
  Ta  Ta33  1  0.58333333  0.16666667  0.70819167  1
  Ta  Ta33  1  0.58333333  0.16666667  0.95819167  1
  Ta  Ta33  1  0.58333333  0.41666667  0.20819167  1
  Ta  Ta33  1  0.58333333  0.41666667  0.45819167  1
  Ta  Ta33  1  0.58333333  0.41666667  0.70819167  1
  Ta  Ta33  1  0.58333333  0.41666667  0.95819167  1
  Ta  Ta33  1  0.58333333  0.66666667  0.20819167  1
  Ta  Ta33  1  0.58333333  0.66666667  0.45819167  1
  Ta  Ta33  1  0.58333333  0.66666667  0.70819167  1
  Ta  Ta33  1  0.58333333  0.66666667  0.95819167  1
  Ta  Ta33  1  0.58333333  0.91666667  0.20819167  1
  Ta  Ta33  1  0.58333333  0.91666667  0.45819167  1
  Ta  Ta33  1  0.58333333  0.91666667  0.70819167  1
  Ta  Ta33  1  0.58333333  0.91666667  0.95819167  1
  Ta  Ta33  1  0.83333333  0.16666667  0.20819167  1
  Ta  Ta33  1  0.83333333  0.16666667  0.45819167  1
  Ta  Ta33  1  0.83333333  0.16666667  0.70819167  1
  Ta  Ta33  1  0.83333333  0.16666667  0.95819167  1
  Ta  Ta33  1  0.83333333  0.41666667  0.20819167  1
  Ta  Ta33  1  0.83333333  0.41666667  0.45819167  1
  Ta  Ta33  1  0.83333333  0.41666667  0.70819167  1
  Ta  Ta33  1  0.83333333  0.41666667  0.95819167  1
  Ta  Ta33  1  0.83333333  0.66666667  0.20819167  1
  Ta  Ta33  1  0.83333333  0.66666667  0.45819167  1
  Ta  Ta33  1  0.83333333  0.66666667  0.70819167  1
  Ta  Ta33  1  0.83333333  0.66666667  0.95819167  1
  Ta  Ta33  1  0.83333333  0.91666667  0.20819167  1
  Ta  Ta33  1  0.83333333  0.91666667  0.45819167  1
  Ta  Ta33  1  0.83333333  0.91666667  0.70819167  1
  Ta  Ta33  1  0.83333333  0.91666667  0.95819167  1
  Ta  Ta34  1  0.00000000  0.00000000  0.20847500  1
  Ta  Ta34  1  0.00000000  0.00000000  0.45847500  1
  Ta  Ta34  1  0.00000000  0.00000000  0.70847500  1
  Ta  Ta34  1  0.00000000  0.00000000  0.95847500  1
  Ta  Ta34  1  0.00000000  0.25000000  0.20847500  1
  Ta  Ta34  1  0.00000000  0.25000000  0.45847500  1
  Ta  Ta34  1  0.00000000  0.25000000  0.70847500  1
  Ta  Ta34  1  0.00000000  0.25000000  0.95847500  1
  Ta  Ta34  1  0.00000000  0.50000000  0.20847500  1
  Ta  Ta34  1  0.00000000  0.50000000  0.45847500  1
  Ta  Ta34  1  0.00000000  0.50000000  0.70847500  1
  Ta  Ta34  1  0.00000000  0.50000000  0.95847500  1
  Ta  Ta34  1  0.00000000  0.75000000  0.20847500  1
  Ta  Ta34  1  0.00000000  0.75000000  0.45847500  1
  Ta  Ta34  1  0.00000000  0.75000000  0.70847500  1
  Ta  Ta34  1  0.00000000  0.75000000  0.95847500  1
  Ta  Ta34  1  0.25000000  0.00000000  0.20847500  1
  Ta  Ta34  1  0.25000000  0.00000000  0.45847500  1
  Ta  Ta34  1  0.25000000  0.00000000  0.70847500  1
  Ta  Ta34  1  0.25000000  0.00000000  0.95847500  1
  Ta  Ta34  1  0.25000000  0.25000000  0.20847500  1
  Ta  Ta34  1  0.25000000  0.25000000  0.45847500  1
  Ta  Ta34  1  0.25000000  0.25000000  0.70847500  1
  Ta  Ta34  1  0.25000000  0.25000000  0.95847500  1
  Ta  Ta34  1  0.25000000  0.50000000  0.20847500  1
  Ta  Ta34  1  0.25000000  0.50000000  0.45847500  1
  Ta  Ta34  1  0.25000000  0.50000000  0.70847500  1
  Ta  Ta34  1  0.25000000  0.50000000  0.95847500  1
  Ta  Ta34  1  0.25000000  0.75000000  0.20847500  1
  Ta  Ta34  1  0.25000000  0.75000000  0.45847500  1
  Ta  Ta34  1  0.25000000  0.75000000  0.70847500  1
  Ta  Ta34  1  0.25000000  0.75000000  0.95847500  1
  Ta  Ta34  1  0.50000000  0.00000000  0.20847500  1
  Ta  Ta34  1  0.50000000  0.00000000  0.45847500  1
  Ta  Ta34  1  0.50000000  0.00000000  0.70847500  1
  Ta  Ta34  1  0.50000000  0.00000000  0.95847500  1
  Ta  Ta34  1  0.50000000  0.25000000  0.20847500  1
  Ta  Ta34  1  0.50000000  0.25000000  0.45847500  1
  Ta  Ta34  1  0.50000000  0.25000000  0.70847500  1
  Ta  Ta34  1  0.50000000  0.25000000  0.95847500  1
  Ta  Ta34  1  0.50000000  0.50000000  0.20847500  1
  Ta  Ta34  1  0.50000000  0.50000000  0.45847500  1
  Ta  Ta34  1  0.50000000  0.50000000  0.70847500  1
  Ta  Ta34  1  0.50000000  0.50000000  0.95847500  1
  Ta  Ta34  1  0.50000000  0.75000000  0.20847500  1
  Ta  Ta34  1  0.50000000  0.75000000  0.45847500  1
  Ta  Ta34  1  0.50000000  0.75000000  0.70847500  1
  Ta  Ta34  1  0.50000000  0.75000000  0.95847500  1
  Ta  Ta34  1  0.75000000  0.00000000  0.20847500  1
  Ta  Ta34  1  0.75000000  0.00000000  0.45847500  1
  Ta  Ta34  1  0.75000000  0.00000000  0.70847500  1
  Ta  Ta34  1  0.75000000  0.00000000  0.95847500  1
  Ta  Ta34  1  0.75000000  0.25000000  0.20847500  1
  Ta  Ta34  1  0.75000000  0.25000000  0.45847500  1
  Ta  Ta34  1  0.75000000  0.25000000  0.70847500  1
  Ta  Ta34  1  0.75000000  0.25000000  0.95847500  1
  Ta  Ta34  1  0.75000000  0.50000000  0.20847500  1
  Ta  Ta34  1  0.75000000  0.50000000  0.45847500  1
  Ta  Ta34  1  0.75000000  0.50000000  0.70847500  1
  Ta  Ta34  1  0.75000000  0.50000000  0.95847500  1
  Ta  Ta34  1  0.75000000  0.75000000  0.20847500  1
  Ta  Ta34  1  0.75000000  0.75000000  0.45847500  1
  Ta  Ta34  1  0.75000000  0.75000000  0.70847500  1
  Ta  Ta34  1  0.75000000  0.75000000  0.95847500  1
  Ta  Ta35  1  0.16666667  0.08333333  0.17019258  1
  Ta  Ta35  1  0.16666667  0.08333333  0.42019258  1
  Ta  Ta35  1  0.16666667  0.08333333  0.67019258  1
  Ta  Ta35  1  0.16666667  0.08333333  0.92019258  1
  Ta  Ta35  1  0.16666667  0.33333333  0.17019258  1
  Ta  Ta35  1  0.16666667  0.33333333  0.42019258  1
  Ta  Ta35  1  0.16666667  0.33333333  0.67019258  1
  Ta  Ta35  1  0.16666667  0.33333333  0.92019258  1
  Ta  Ta35  1  0.16666667  0.58333333  0.17019258  1
  Ta  Ta35  1  0.16666667  0.58333333  0.42019258  1
  Ta  Ta35  1  0.16666667  0.58333333  0.67019258  1
  Ta  Ta35  1  0.16666667  0.58333333  0.92019258  1
  Ta  Ta35  1  0.16666667  0.83333333  0.17019258  1
  Ta  Ta35  1  0.16666667  0.83333333  0.42019258  1
  Ta  Ta35  1  0.16666667  0.83333333  0.67019258  1
  Ta  Ta35  1  0.16666667  0.83333333  0.92019258  1
  Ta  Ta35  1  0.41666667  0.08333333  0.17019258  1
  Ta  Ta35  1  0.41666667  0.08333333  0.42019258  1
  Ta  Ta35  1  0.41666667  0.08333333  0.67019258  1
  Ta  Ta35  1  0.41666667  0.08333333  0.92019258  1
  Ta  Ta35  1  0.41666667  0.33333333  0.17019258  1
  Ta  Ta35  1  0.41666667  0.33333333  0.42019258  1
  Ta  Ta35  1  0.41666667  0.33333333  0.67019258  1
  Ta  Ta35  1  0.41666667  0.33333333  0.92019258  1
  Ta  Ta35  1  0.41666667  0.58333333  0.17019258  1
  Ta  Ta35  1  0.41666667  0.58333333  0.42019258  1
  Ta  Ta35  1  0.41666667  0.58333333  0.67019258  1
  Ta  Ta35  1  0.41666667  0.58333333  0.92019258  1
  Ta  Ta35  1  0.41666667  0.83333333  0.17019258  1
  Ta  Ta35  1  0.41666667  0.83333333  0.42019258  1
  Ta  Ta35  1  0.41666667  0.83333333  0.67019258  1
  Ta  Ta35  1  0.41666667  0.83333333  0.92019258  1
  Ta  Ta35  1  0.66666667  0.08333333  0.17019258  1
  Ta  Ta35  1  0.66666667  0.08333333  0.42019258  1
  Ta  Ta35  1  0.66666667  0.08333333  0.67019258  1
  Ta  Ta35  1  0.66666667  0.08333333  0.92019258  1
  Ta  Ta35  1  0.66666667  0.33333333  0.17019258  1
  Ta  Ta35  1  0.66666667  0.33333333  0.42019258  1
  Ta  Ta35  1  0.66666667  0.33333333  0.67019258  1
  Ta  Ta35  1  0.66666667  0.33333333  0.92019258  1
  Ta  Ta35  1  0.66666667  0.58333333  0.17019258  1
  Ta  Ta35  1  0.66666667  0.58333333  0.42019258  1
  Ta  Ta35  1  0.66666667  0.58333333  0.67019258  1
  Ta  Ta35  1  0.66666667  0.58333333  0.92019258  1
  Ta  Ta35  1  0.66666667  0.83333333  0.17019258  1
  Ta  Ta35  1  0.66666667  0.83333333  0.42019258  1
  Ta  Ta35  1  0.66666667  0.83333333  0.67019258  1
  Ta  Ta35  1  0.66666667  0.83333333  0.92019258  1
  Ta  Ta35  1  0.91666667  0.08333333  0.17019258  1
  Ta  Ta35  1  0.91666667  0.08333333  0.42019258  1
  Ta  Ta35  1  0.91666667  0.08333333  0.67019258  1
  Ta  Ta35  1  0.91666667  0.08333333  0.92019258  1
  Ta  Ta35  1  0.91666667  0.33333333  0.17019258  1
  Ta  Ta35  1  0.91666667  0.33333333  0.42019258  1
  Ta  Ta35  1  0.91666667  0.33333333  0.67019258  1
  Ta  Ta35  1  0.91666667  0.33333333  0.92019258  1
  Ta  Ta35  1  0.91666667  0.58333333  0.17019258  1
  Ta  Ta35  1  0.91666667  0.58333333  0.42019258  1
  Ta  Ta35  1  0.91666667  0.58333333  0.67019258  1
  Ta  Ta35  1  0.91666667  0.58333333  0.92019258  1
  Ta  Ta35  1  0.91666667  0.83333333  0.17019258  1
  Ta  Ta35  1  0.91666667  0.83333333  0.42019258  1
  Ta  Ta35  1  0.91666667  0.83333333  0.67019258  1
  Ta  Ta35  1  0.91666667  0.83333333  0.92019258  1
  Ta  Ta36  1  0.16666667  0.08333333  0.24647408  1
  Ta  Ta36  1  0.16666667  0.08333333  0.49647408  1
  Ta  Ta36  1  0.16666667  0.08333333  0.74647408  1
  Ta  Ta36  1  0.16666667  0.08333333  0.99647408  1
  Ta  Ta36  1  0.16666667  0.33333333  0.24647408  1
  Ta  Ta36  1  0.16666667  0.33333333  0.49647408  1
  Ta  Ta36  1  0.16666667  0.33333333  0.74647408  1
  Ta  Ta36  1  0.16666667  0.33333333  0.99647408  1
  Ta  Ta36  1  0.16666667  0.58333333  0.24647408  1
  Ta  Ta36  1  0.16666667  0.58333333  0.49647408  1
  Ta  Ta36  1  0.16666667  0.58333333  0.74647408  1
  Ta  Ta36  1  0.16666667  0.58333333  0.99647408  1
  Ta  Ta36  1  0.16666667  0.83333333  0.24647408  1
  Ta  Ta36  1  0.16666667  0.83333333  0.49647408  1
  Ta  Ta36  1  0.16666667  0.83333333  0.74647408  1
  Ta  Ta36  1  0.16666667  0.83333333  0.99647408  1
  Ta  Ta36  1  0.41666667  0.08333333  0.24647408  1
  Ta  Ta36  1  0.41666667  0.08333333  0.49647408  1
  Ta  Ta36  1  0.41666667  0.08333333  0.74647408  1
  Ta  Ta36  1  0.41666667  0.08333333  0.99647408  1
  Ta  Ta36  1  0.41666667  0.33333333  0.24647408  1
  Ta  Ta36  1  0.41666667  0.33333333  0.49647408  1
  Ta  Ta36  1  0.41666667  0.33333333  0.74647408  1
  Ta  Ta36  1  0.41666667  0.33333333  0.99647408  1
  Ta  Ta36  1  0.41666667  0.58333333  0.24647408  1
  Ta  Ta36  1  0.41666667  0.58333333  0.49647408  1
  Ta  Ta36  1  0.41666667  0.58333333  0.74647408  1
  Ta  Ta36  1  0.41666667  0.58333333  0.99647408  1
  Ta  Ta36  1  0.41666667  0.83333333  0.24647408  1
  Ta  Ta36  1  0.41666667  0.83333333  0.49647408  1
  Ta  Ta36  1  0.41666667  0.83333333  0.74647408  1
  Ta  Ta36  1  0.41666667  0.83333333  0.99647408  1
  Ta  Ta36  1  0.66666667  0.08333333  0.24647408  1
  Ta  Ta36  1  0.66666667  0.08333333  0.49647408  1
  Ta  Ta36  1  0.66666667  0.08333333  0.74647408  1
  Ta  Ta36  1  0.66666667  0.08333333  0.99647408  1
  Ta  Ta36  1  0.66666667  0.33333333  0.24647408  1
  Ta  Ta36  1  0.66666667  0.33333333  0.49647408  1
  Ta  Ta36  1  0.66666667  0.33333333  0.74647408  1
  Ta  Ta36  1  0.66666667  0.33333333  0.99647408  1
  Ta  Ta36  1  0.66666667  0.58333333  0.24647408  1
  Ta  Ta36  1  0.66666667  0.58333333  0.49647408  1
  Ta  Ta36  1  0.66666667  0.58333333  0.74647408  1
  Ta  Ta36  1  0.66666667  0.58333333  0.99647408  1
  Ta  Ta36  1  0.66666667  0.83333333  0.24647408  1
  Ta  Ta36  1  0.66666667  0.83333333  0.49647408  1
  Ta  Ta36  1  0.66666667  0.83333333  0.74647408  1
  Ta  Ta36  1  0.66666667  0.83333333  0.99647408  1
  Ta  Ta36  1  0.91666667  0.08333333  0.24647408  1
  Ta  Ta36  1  0.91666667  0.08333333  0.49647408  1
  Ta  Ta36  1  0.91666667  0.08333333  0.74647408  1
  Ta  Ta36  1  0.91666667  0.08333333  0.99647408  1
  Ta  Ta36  1  0.91666667  0.33333333  0.24647408  1
  Ta  Ta36  1  0.91666667  0.33333333  0.49647408  1
  Ta  Ta36  1  0.91666667  0.33333333  0.74647408  1
  Ta  Ta36  1  0.91666667  0.33333333  0.99647408  1
  Ta  Ta36  1  0.91666667  0.58333333  0.24647408  1
  Ta  Ta36  1  0.91666667  0.58333333  0.49647408  1
  Ta  Ta36  1  0.91666667  0.58333333  0.74647408  1
  Ta  Ta36  1  0.91666667  0.58333333  0.99647408  1
  Ta  Ta36  1  0.91666667  0.83333333  0.24647408  1
  Ta  Ta36  1  0.91666667  0.83333333  0.49647408  1
  Ta  Ta36  1  0.91666667  0.83333333  0.74647408  1
  Ta  Ta36  1  0.91666667  0.83333333  0.99647408  1
  Ta  Ta37  1  0.16666667  0.08333333  0.19592583  1
  Ta  Ta37  1  0.16666667  0.08333333  0.44592583  1
  Ta  Ta37  1  0.16666667  0.08333333  0.69592583  1
  Ta  Ta37  1  0.16666667  0.08333333  0.94592583  1
  Ta  Ta37  1  0.16666667  0.33333333  0.19592583  1
  Ta  Ta37  1  0.16666667  0.33333333  0.44592583  1
  Ta  Ta37  1  0.16666667  0.33333333  0.69592583  1
  Ta  Ta37  1  0.16666667  0.33333333  0.94592583  1
  Ta  Ta37  1  0.16666667  0.58333333  0.19592583  1
  Ta  Ta37  1  0.16666667  0.58333333  0.44592583  1
  Ta  Ta37  1  0.16666667  0.58333333  0.69592583  1
  Ta  Ta37  1  0.16666667  0.58333333  0.94592583  1
  Ta  Ta37  1  0.16666667  0.83333333  0.19592583  1
  Ta  Ta37  1  0.16666667  0.83333333  0.44592583  1
  Ta  Ta37  1  0.16666667  0.83333333  0.69592583  1
  Ta  Ta37  1  0.16666667  0.83333333  0.94592583  1
  Ta  Ta37  1  0.41666667  0.08333333  0.19592583  1
  Ta  Ta37  1  0.41666667  0.08333333  0.44592583  1
  Ta  Ta37  1  0.41666667  0.08333333  0.69592583  1
  Ta  Ta37  1  0.41666667  0.08333333  0.94592583  1
  Ta  Ta37  1  0.41666667  0.33333333  0.19592583  1
  Ta  Ta37  1  0.41666667  0.33333333  0.44592583  1
  Ta  Ta37  1  0.41666667  0.33333333  0.69592583  1
  Ta  Ta37  1  0.41666667  0.33333333  0.94592583  1
  Ta  Ta37  1  0.41666667  0.58333333  0.19592583  1
  Ta  Ta37  1  0.41666667  0.58333333  0.44592583  1
  Ta  Ta37  1  0.41666667  0.58333333  0.69592583  1
  Ta  Ta37  1  0.41666667  0.58333333  0.94592583  1
  Ta  Ta37  1  0.41666667  0.83333333  0.19592583  1
  Ta  Ta37  1  0.41666667  0.83333333  0.44592583  1
  Ta  Ta37  1  0.41666667  0.83333333  0.69592583  1
  Ta  Ta37  1  0.41666667  0.83333333  0.94592583  1
  Ta  Ta37  1  0.66666667  0.08333333  0.19592583  1
  Ta  Ta37  1  0.66666667  0.08333333  0.44592583  1
  Ta  Ta37  1  0.66666667  0.08333333  0.69592583  1
  Ta  Ta37  1  0.66666667  0.08333333  0.94592583  1
  Ta  Ta37  1  0.66666667  0.33333333  0.19592583  1
  Ta  Ta37  1  0.66666667  0.33333333  0.44592583  1
  Ta  Ta37  1  0.66666667  0.33333333  0.69592583  1
  Ta  Ta37  1  0.66666667  0.33333333  0.94592583  1
  Ta  Ta37  1  0.66666667  0.58333333  0.19592583  1
  Ta  Ta37  1  0.66666667  0.58333333  0.44592583  1
  Ta  Ta37  1  0.66666667  0.58333333  0.69592583  1
  Ta  Ta37  1  0.66666667  0.58333333  0.94592583  1
  Ta  Ta37  1  0.66666667  0.83333333  0.19592583  1
  Ta  Ta37  1  0.66666667  0.83333333  0.44592583  1
  Ta  Ta37  1  0.66666667  0.83333333  0.69592583  1
  Ta  Ta37  1  0.66666667  0.83333333  0.94592583  1
  Ta  Ta37  1  0.91666667  0.08333333  0.19592583  1
  Ta  Ta37  1  0.91666667  0.08333333  0.44592583  1
  Ta  Ta37  1  0.91666667  0.08333333  0.69592583  1
  Ta  Ta37  1  0.91666667  0.08333333  0.94592583  1
  Ta  Ta37  1  0.91666667  0.33333333  0.19592583  1
  Ta  Ta37  1  0.91666667  0.33333333  0.44592583  1
  Ta  Ta37  1  0.91666667  0.33333333  0.69592583  1
  Ta  Ta37  1  0.91666667  0.33333333  0.94592583  1
  Ta  Ta37  1  0.91666667  0.58333333  0.19592583  1
  Ta  Ta37  1  0.91666667  0.58333333  0.44592583  1
  Ta  Ta37  1  0.91666667  0.58333333  0.69592583  1
  Ta  Ta37  1  0.91666667  0.58333333  0.94592583  1
  Ta  Ta37  1  0.91666667  0.83333333  0.19592583  1
  Ta  Ta37  1  0.91666667  0.83333333  0.44592583  1
  Ta  Ta37  1  0.91666667  0.83333333  0.69592583  1
  Ta  Ta37  1  0.91666667  0.83333333  0.94592583  1
  Ta  Ta38  1  0.16666667  0.08333333  0.22074083  1
  Ta  Ta38  1  0.16666667  0.08333333  0.47074083  1
  Ta  Ta38  1  0.16666667  0.08333333  0.72074083  1
  Ta  Ta38  1  0.16666667  0.08333333  0.97074083  1
  Ta  Ta38  1  0.16666667  0.33333333  0.22074083  1
  Ta  Ta38  1  0.16666667  0.33333333  0.47074083  1
  Ta  Ta38  1  0.16666667  0.33333333  0.72074083  1
  Ta  Ta38  1  0.16666667  0.33333333  0.97074083  1
  Ta  Ta38  1  0.16666667  0.58333333  0.22074083  1
  Ta  Ta38  1  0.16666667  0.58333333  0.47074083  1
  Ta  Ta38  1  0.16666667  0.58333333  0.72074083  1
  Ta  Ta38  1  0.16666667  0.58333333  0.97074083  1
  Ta  Ta38  1  0.16666667  0.83333333  0.22074083  1
  Ta  Ta38  1  0.16666667  0.83333333  0.47074083  1
  Ta  Ta38  1  0.16666667  0.83333333  0.72074083  1
  Ta  Ta38  1  0.16666667  0.83333333  0.97074083  1
  Ta  Ta38  1  0.41666667  0.08333333  0.22074083  1
  Ta  Ta38  1  0.41666667  0.08333333  0.47074083  1
  Ta  Ta38  1  0.41666667  0.08333333  0.72074083  1
  Ta  Ta38  1  0.41666667  0.08333333  0.97074083  1
  Ta  Ta38  1  0.41666667  0.33333333  0.22074083  1
  Ta  Ta38  1  0.41666667  0.33333333  0.47074083  1
  Ta  Ta38  1  0.41666667  0.33333333  0.72074083  1
  Ta  Ta38  1  0.41666667  0.33333333  0.97074083  1
  Ta  Ta38  1  0.41666667  0.58333333  0.22074083  1
  Ta  Ta38  1  0.41666667  0.58333333  0.47074083  1
  Ta  Ta38  1  0.41666667  0.58333333  0.72074083  1
  Ta  Ta38  1  0.41666667  0.58333333  0.97074083  1
  Ta  Ta38  1  0.41666667  0.83333333  0.22074083  1
  Ta  Ta38  1  0.41666667  0.83333333  0.47074083  1
  Ta  Ta38  1  0.41666667  0.83333333  0.72074083  1
  Ta  Ta38  1  0.41666667  0.83333333  0.97074083  1
  Ta  Ta38  1  0.66666667  0.08333333  0.22074083  1
  Ta  Ta38  1  0.66666667  0.08333333  0.47074083  1
  Ta  Ta38  1  0.66666667  0.08333333  0.72074083  1
  Ta  Ta38  1  0.66666667  0.08333333  0.97074083  1
  Ta  Ta38  1  0.66666667  0.33333333  0.22074083  1
  Ta  Ta38  1  0.66666667  0.33333333  0.47074083  1
  Ta  Ta38  1  0.66666667  0.33333333  0.72074083  1
  Ta  Ta38  1  0.66666667  0.33333333  0.97074083  1
  Ta  Ta38  1  0.66666667  0.58333333  0.22074083  1
  Ta  Ta38  1  0.66666667  0.58333333  0.47074083  1
  Ta  Ta38  1  0.66666667  0.58333333  0.72074083  1
  Ta  Ta38  1  0.66666667  0.58333333  0.97074083  1
  Ta  Ta38  1  0.66666667  0.83333333  0.22074083  1
  Ta  Ta38  1  0.66666667  0.83333333  0.47074083  1
  Ta  Ta38  1  0.66666667  0.83333333  0.72074083  1
  Ta  Ta38  1  0.66666667  0.83333333  0.97074083  1
  Ta  Ta38  1  0.91666667  0.08333333  0.22074083  1
  Ta  Ta38  1  0.91666667  0.08333333  0.47074083  1
  Ta  Ta38  1  0.91666667  0.08333333  0.72074083  1
  Ta  Ta38  1  0.91666667  0.08333333  0.97074083  1
  Ta  Ta38  1  0.91666667  0.33333333  0.22074083  1
  Ta  Ta38  1  0.91666667  0.33333333  0.47074083  1
  Ta  Ta38  1  0.91666667  0.33333333  0.72074083  1
  Ta  Ta38  1  0.91666667  0.33333333  0.97074083  1
  Ta  Ta38  1  0.91666667  0.58333333  0.22074083  1
  Ta  Ta38  1  0.91666667  0.58333333  0.47074083  1
  Ta  Ta38  1  0.91666667  0.58333333  0.72074083  1
  Ta  Ta38  1  0.91666667  0.58333333  0.97074083  1
  Ta  Ta38  1  0.91666667  0.83333333  0.22074083  1
  Ta  Ta38  1  0.91666667  0.83333333  0.47074083  1
  Ta  Ta38  1  0.91666667  0.83333333  0.72074083  1
  Ta  Ta38  1  0.91666667  0.83333333  0.97074083  1
