# generated using pymatgen
data_TaCo2
_symmetry_space_group_name_H-M   'P 1'
_cell_length_a   19.04000000
_cell_length_b   19.04000000
_cell_length_c   62.00000000
_cell_angle_alpha   90.00000000
_cell_angle_beta   90.00000000
_cell_angle_gamma   90.00000000
_symmetry_Int_Tables_number   1
_chemical_formula_structural   TaCo2
_chemical_formula_sum   'Ta512 Co1024'
_cell_volume   22476.33920000
_cell_formula_units_Z   512
loop_
 _symmetry_equiv_pos_site_id
 _symmetry_equiv_pos_as_xyz
  1  'x, y, z'
loop_
 _atom_site_type_symbol
 _atom_site_label
 _atom_site_symmetry_multiplicity
 _atom_site_fract_x
 _atom_site_fract_y
 _atom_site_fract_z
 _atom_site_occupancy
  Ta  Ta1  1  0.00000000  0.00000000  0.02350000  1
  Ta  Ta1  1  0.00000000  0.00000000  0.27350000  1
  Ta  Ta1  1  0.00000000  0.00000000  0.52350000  1
  Ta  Ta1  1  0.00000000  0.00000000  0.77350000  1
  Ta  Ta1  1  0.00000000  0.25000000  0.02350000  1
  Ta  Ta1  1  0.00000000  0.25000000  0.27350000  1
  Ta  Ta1  1  0.00000000  0.25000000  0.52350000  1
  Ta  Ta1  1  0.00000000  0.25000000  0.77350000  1
  Ta  Ta1  1  0.00000000  0.50000000  0.02350000  1
  Ta  Ta1  1  0.00000000  0.50000000  0.27350000  1
  Ta  Ta1  1  0.00000000  0.50000000  0.52350000  1
  Ta  Ta1  1  0.00000000  0.50000000  0.77350000  1
  Ta  Ta1  1  0.00000000  0.75000000  0.02350000  1
  Ta  Ta1  1  0.00000000  0.75000000  0.27350000  1
  Ta  Ta1  1  0.00000000  0.75000000  0.52350000  1
  Ta  Ta1  1  0.00000000  0.75000000  0.77350000  1
  Ta  Ta1  1  0.25000000  0.00000000  0.02350000  1
  Ta  Ta1  1  0.25000000  0.00000000  0.27350000  1
  Ta  Ta1  1  0.25000000  0.00000000  0.52350000  1
  Ta  Ta1  1  0.25000000  0.00000000  0.77350000  1
  Ta  Ta1  1  0.25000000  0.25000000  0.02350000  1
  Ta  Ta1  1  0.25000000  0.25000000  0.27350000  1
  Ta  Ta1  1  0.25000000  0.25000000  0.52350000  1
  Ta  Ta1  1  0.25000000  0.25000000  0.77350000  1
  Ta  Ta1  1  0.25000000  0.50000000  0.02350000  1
  Ta  Ta1  1  0.25000000  0.50000000  0.27350000  1
  Ta  Ta1  1  0.25000000  0.50000000  0.52350000  1
  Ta  Ta1  1  0.25000000  0.50000000  0.77350000  1
  Ta  Ta1  1  0.25000000  0.75000000  0.02350000  1
  Ta  Ta1  1  0.25000000  0.75000000  0.27350000  1
  Ta  Ta1  1  0.25000000  0.75000000  0.52350000  1
  Ta  Ta1  1  0.25000000  0.75000000  0.77350000  1
  Ta  Ta1  1  0.50000000  0.00000000  0.02350000  1
  Ta  Ta1  1  0.50000000  0.00000000  0.27350000  1
  Ta  Ta1  1  0.50000000  0.00000000  0.52350000  1
  Ta  Ta1  1  0.50000000  0.00000000  0.77350000  1
  Ta  Ta1  1  0.50000000  0.25000000  0.02350000  1
  Ta  Ta1  1  0.50000000  0.25000000  0.27350000  1
  Ta  Ta1  1  0.50000000  0.25000000  0.52350000  1
  Ta  Ta1  1  0.50000000  0.25000000  0.77350000  1
  Ta  Ta1  1  0.50000000  0.50000000  0.02350000  1
  Ta  Ta1  1  0.50000000  0.50000000  0.27350000  1
  Ta  Ta1  1  0.50000000  0.50000000  0.52350000  1
  Ta  Ta1  1  0.50000000  0.50000000  0.77350000  1
  Ta  Ta1  1  0.50000000  0.75000000  0.02350000  1
  Ta  Ta1  1  0.50000000  0.75000000  0.27350000  1
  Ta  Ta1  1  0.50000000  0.75000000  0.52350000  1
  Ta  Ta1  1  0.50000000  0.75000000  0.77350000  1
  Ta  Ta1  1  0.75000000  0.00000000  0.02350000  1
  Ta  Ta1  1  0.75000000  0.00000000  0.27350000  1
  Ta  Ta1  1  0.75000000  0.00000000  0.52350000  1
  Ta  Ta1  1  0.75000000  0.00000000  0.77350000  1
  Ta  Ta1  1  0.75000000  0.25000000  0.02350000  1
  Ta  Ta1  1  0.75000000  0.25000000  0.27350000  1
  Ta  Ta1  1  0.75000000  0.25000000  0.52350000  1
  Ta  Ta1  1  0.75000000  0.25000000  0.77350000  1
  Ta  Ta1  1  0.75000000  0.50000000  0.02350000  1
  Ta  Ta1  1  0.75000000  0.50000000  0.27350000  1
  Ta  Ta1  1  0.75000000  0.50000000  0.52350000  1
  Ta  Ta1  1  0.75000000  0.50000000  0.77350000  1
  Ta  Ta1  1  0.75000000  0.75000000  0.02350000  1
  Ta  Ta1  1  0.75000000  0.75000000  0.27350000  1
  Ta  Ta1  1  0.75000000  0.75000000  0.52350000  1
  Ta  Ta1  1  0.75000000  0.75000000  0.77350000  1
  Ta  Ta1  1  0.00000000  0.00000000  0.14850000  1
  Ta  Ta1  1  0.00000000  0.00000000  0.39850000  1
  Ta  Ta1  1  0.00000000  0.00000000  0.64850000  1
  Ta  Ta1  1  0.00000000  0.00000000  0.89850000  1
  Ta  Ta1  1  0.00000000  0.25000000  0.14850000  1
  Ta  Ta1  1  0.00000000  0.25000000  0.39850000  1
  Ta  Ta1  1  0.00000000  0.25000000  0.64850000  1
  Ta  Ta1  1  0.00000000  0.25000000  0.89850000  1
  Ta  Ta1  1  0.00000000  0.50000000  0.14850000  1
  Ta  Ta1  1  0.00000000  0.50000000  0.39850000  1
  Ta  Ta1  1  0.00000000  0.50000000  0.64850000  1
  Ta  Ta1  1  0.00000000  0.50000000  0.89850000  1
  Ta  Ta1  1  0.00000000  0.75000000  0.14850000  1
  Ta  Ta1  1  0.00000000  0.75000000  0.39850000  1
  Ta  Ta1  1  0.00000000  0.75000000  0.64850000  1
  Ta  Ta1  1  0.00000000  0.75000000  0.89850000  1
  Ta  Ta1  1  0.25000000  0.00000000  0.14850000  1
  Ta  Ta1  1  0.25000000  0.00000000  0.39850000  1
  Ta  Ta1  1  0.25000000  0.00000000  0.64850000  1
  Ta  Ta1  1  0.25000000  0.00000000  0.89850000  1
  Ta  Ta1  1  0.25000000  0.25000000  0.14850000  1
  Ta  Ta1  1  0.25000000  0.25000000  0.39850000  1
  Ta  Ta1  1  0.25000000  0.25000000  0.64850000  1
  Ta  Ta1  1  0.25000000  0.25000000  0.89850000  1
  Ta  Ta1  1  0.25000000  0.50000000  0.14850000  1
  Ta  Ta1  1  0.25000000  0.50000000  0.39850000  1
  Ta  Ta1  1  0.25000000  0.50000000  0.64850000  1
  Ta  Ta1  1  0.25000000  0.50000000  0.89850000  1
  Ta  Ta1  1  0.25000000  0.75000000  0.14850000  1
  Ta  Ta1  1  0.25000000  0.75000000  0.39850000  1
  Ta  Ta1  1  0.25000000  0.75000000  0.64850000  1
  Ta  Ta1  1  0.25000000  0.75000000  0.89850000  1
  Ta  Ta1  1  0.50000000  0.00000000  0.14850000  1
  Ta  Ta1  1  0.50000000  0.00000000  0.39850000  1
  Ta  Ta1  1  0.50000000  0.00000000  0.64850000  1
  Ta  Ta1  1  0.50000000  0.00000000  0.89850000  1
  Ta  Ta1  1  0.50000000  0.25000000  0.14850000  1
  Ta  Ta1  1  0.50000000  0.25000000  0.39850000  1
  Ta  Ta1  1  0.50000000  0.25000000  0.64850000  1
  Ta  Ta1  1  0.50000000  0.25000000  0.89850000  1
  Ta  Ta1  1  0.50000000  0.50000000  0.14850000  1
  Ta  Ta1  1  0.50000000  0.50000000  0.39850000  1
  Ta  Ta1  1  0.50000000  0.50000000  0.64850000  1
  Ta  Ta1  1  0.50000000  0.50000000  0.89850000  1
  Ta  Ta1  1  0.50000000  0.75000000  0.14850000  1
  Ta  Ta1  1  0.50000000  0.75000000  0.39850000  1
  Ta  Ta1  1  0.50000000  0.75000000  0.64850000  1
  Ta  Ta1  1  0.50000000  0.75000000  0.89850000  1
  Ta  Ta1  1  0.75000000  0.00000000  0.14850000  1
  Ta  Ta1  1  0.75000000  0.00000000  0.39850000  1
  Ta  Ta1  1  0.75000000  0.00000000  0.64850000  1
  Ta  Ta1  1  0.75000000  0.00000000  0.89850000  1
  Ta  Ta1  1  0.75000000  0.25000000  0.14850000  1
  Ta  Ta1  1  0.75000000  0.25000000  0.39850000  1
  Ta  Ta1  1  0.75000000  0.25000000  0.64850000  1
  Ta  Ta1  1  0.75000000  0.25000000  0.89850000  1
  Ta  Ta1  1  0.75000000  0.50000000  0.14850000  1
  Ta  Ta1  1  0.75000000  0.50000000  0.39850000  1
  Ta  Ta1  1  0.75000000  0.50000000  0.64850000  1
  Ta  Ta1  1  0.75000000  0.50000000  0.89850000  1
  Ta  Ta1  1  0.75000000  0.75000000  0.14850000  1
  Ta  Ta1  1  0.75000000  0.75000000  0.39850000  1
  Ta  Ta1  1  0.75000000  0.75000000  0.64850000  1
  Ta  Ta1  1  0.75000000  0.75000000  0.89850000  1
  Ta  Ta1  1  0.00000000  0.00000000  0.10150000  1
  Ta  Ta1  1  0.00000000  0.00000000  0.35150000  1
  Ta  Ta1  1  0.00000000  0.00000000  0.60150000  1
  Ta  Ta1  1  0.00000000  0.00000000  0.85150000  1
  Ta  Ta1  1  0.00000000  0.25000000  0.10150000  1
  Ta  Ta1  1  0.00000000  0.25000000  0.35150000  1
  Ta  Ta1  1  0.00000000  0.25000000  0.60150000  1
  Ta  Ta1  1  0.00000000  0.25000000  0.85150000  1
  Ta  Ta1  1  0.00000000  0.50000000  0.10150000  1
  Ta  Ta1  1  0.00000000  0.50000000  0.35150000  1
  Ta  Ta1  1  0.00000000  0.50000000  0.60150000  1
  Ta  Ta1  1  0.00000000  0.50000000  0.85150000  1
  Ta  Ta1  1  0.00000000  0.75000000  0.10150000  1
  Ta  Ta1  1  0.00000000  0.75000000  0.35150000  1
  Ta  Ta1  1  0.00000000  0.75000000  0.60150000  1
  Ta  Ta1  1  0.00000000  0.75000000  0.85150000  1
  Ta  Ta1  1  0.25000000  0.00000000  0.10150000  1
  Ta  Ta1  1  0.25000000  0.00000000  0.35150000  1
  Ta  Ta1  1  0.25000000  0.00000000  0.60150000  1
  Ta  Ta1  1  0.25000000  0.00000000  0.85150000  1
  Ta  Ta1  1  0.25000000  0.25000000  0.10150000  1
  Ta  Ta1  1  0.25000000  0.25000000  0.35150000  1
  Ta  Ta1  1  0.25000000  0.25000000  0.60150000  1
  Ta  Ta1  1  0.25000000  0.25000000  0.85150000  1
  Ta  Ta1  1  0.25000000  0.50000000  0.10150000  1
  Ta  Ta1  1  0.25000000  0.50000000  0.35150000  1
  Ta  Ta1  1  0.25000000  0.50000000  0.60150000  1
  Ta  Ta1  1  0.25000000  0.50000000  0.85150000  1
  Ta  Ta1  1  0.25000000  0.75000000  0.10150000  1
  Ta  Ta1  1  0.25000000  0.75000000  0.35150000  1
  Ta  Ta1  1  0.25000000  0.75000000  0.60150000  1
  Ta  Ta1  1  0.25000000  0.75000000  0.85150000  1
  Ta  Ta1  1  0.50000000  0.00000000  0.10150000  1
  Ta  Ta1  1  0.50000000  0.00000000  0.35150000  1
  Ta  Ta1  1  0.50000000  0.00000000  0.60150000  1
  Ta  Ta1  1  0.50000000  0.00000000  0.85150000  1
  Ta  Ta1  1  0.50000000  0.25000000  0.10150000  1
  Ta  Ta1  1  0.50000000  0.25000000  0.35150000  1
  Ta  Ta1  1  0.50000000  0.25000000  0.60150000  1
  Ta  Ta1  1  0.50000000  0.25000000  0.85150000  1
  Ta  Ta1  1  0.50000000  0.50000000  0.10150000  1
  Ta  Ta1  1  0.50000000  0.50000000  0.35150000  1
  Ta  Ta1  1  0.50000000  0.50000000  0.60150000  1
  Ta  Ta1  1  0.50000000  0.50000000  0.85150000  1
  Ta  Ta1  1  0.50000000  0.75000000  0.10150000  1
  Ta  Ta1  1  0.50000000  0.75000000  0.35150000  1
  Ta  Ta1  1  0.50000000  0.75000000  0.60150000  1
  Ta  Ta1  1  0.50000000  0.75000000  0.85150000  1
  Ta  Ta1  1  0.75000000  0.00000000  0.10150000  1
  Ta  Ta1  1  0.75000000  0.00000000  0.35150000  1
  Ta  Ta1  1  0.75000000  0.00000000  0.60150000  1
  Ta  Ta1  1  0.75000000  0.00000000  0.85150000  1
  Ta  Ta1  1  0.75000000  0.25000000  0.10150000  1
  Ta  Ta1  1  0.75000000  0.25000000  0.35150000  1
  Ta  Ta1  1  0.75000000  0.25000000  0.60150000  1
  Ta  Ta1  1  0.75000000  0.25000000  0.85150000  1
  Ta  Ta1  1  0.75000000  0.50000000  0.10150000  1
  Ta  Ta1  1  0.75000000  0.50000000  0.35150000  1
  Ta  Ta1  1  0.75000000  0.50000000  0.60150000  1
  Ta  Ta1  1  0.75000000  0.50000000  0.85150000  1
  Ta  Ta1  1  0.75000000  0.75000000  0.10150000  1
  Ta  Ta1  1  0.75000000  0.75000000  0.35150000  1
  Ta  Ta1  1  0.75000000  0.75000000  0.60150000  1
  Ta  Ta1  1  0.75000000  0.75000000  0.85150000  1
  Ta  Ta1  1  0.00000000  0.00000000  0.22650000  1
  Ta  Ta1  1  0.00000000  0.00000000  0.47650000  1
  Ta  Ta1  1  0.00000000  0.00000000  0.72650000  1
  Ta  Ta1  1  0.00000000  0.00000000  0.97650000  1
  Ta  Ta1  1  0.00000000  0.25000000  0.22650000  1
  Ta  Ta1  1  0.00000000  0.25000000  0.47650000  1
  Ta  Ta1  1  0.00000000  0.25000000  0.72650000  1
  Ta  Ta1  1  0.00000000  0.25000000  0.97650000  1
  Ta  Ta1  1  0.00000000  0.50000000  0.22650000  1
  Ta  Ta1  1  0.00000000  0.50000000  0.47650000  1
  Ta  Ta1  1  0.00000000  0.50000000  0.72650000  1
  Ta  Ta1  1  0.00000000  0.50000000  0.97650000  1
  Ta  Ta1  1  0.00000000  0.75000000  0.22650000  1
  Ta  Ta1  1  0.00000000  0.75000000  0.47650000  1
  Ta  Ta1  1  0.00000000  0.75000000  0.72650000  1
  Ta  Ta1  1  0.00000000  0.75000000  0.97650000  1
  Ta  Ta1  1  0.25000000  0.00000000  0.22650000  1
  Ta  Ta1  1  0.25000000  0.00000000  0.47650000  1
  Ta  Ta1  1  0.25000000  0.00000000  0.72650000  1
  Ta  Ta1  1  0.25000000  0.00000000  0.97650000  1
  Ta  Ta1  1  0.25000000  0.25000000  0.22650000  1
  Ta  Ta1  1  0.25000000  0.25000000  0.47650000  1
  Ta  Ta1  1  0.25000000  0.25000000  0.72650000  1
  Ta  Ta1  1  0.25000000  0.25000000  0.97650000  1
  Ta  Ta1  1  0.25000000  0.50000000  0.22650000  1
  Ta  Ta1  1  0.25000000  0.50000000  0.47650000  1
  Ta  Ta1  1  0.25000000  0.50000000  0.72650000  1
  Ta  Ta1  1  0.25000000  0.50000000  0.97650000  1
  Ta  Ta1  1  0.25000000  0.75000000  0.22650000  1
  Ta  Ta1  1  0.25000000  0.75000000  0.47650000  1
  Ta  Ta1  1  0.25000000  0.75000000  0.72650000  1
  Ta  Ta1  1  0.25000000  0.75000000  0.97650000  1
  Ta  Ta1  1  0.50000000  0.00000000  0.22650000  1
  Ta  Ta1  1  0.50000000  0.00000000  0.47650000  1
  Ta  Ta1  1  0.50000000  0.00000000  0.72650000  1
  Ta  Ta1  1  0.50000000  0.00000000  0.97650000  1
  Ta  Ta1  1  0.50000000  0.25000000  0.22650000  1
  Ta  Ta1  1  0.50000000  0.25000000  0.47650000  1
  Ta  Ta1  1  0.50000000  0.25000000  0.72650000  1
  Ta  Ta1  1  0.50000000  0.25000000  0.97650000  1
  Ta  Ta1  1  0.50000000  0.50000000  0.22650000  1
  Ta  Ta1  1  0.50000000  0.50000000  0.47650000  1
  Ta  Ta1  1  0.50000000  0.50000000  0.72650000  1
  Ta  Ta1  1  0.50000000  0.50000000  0.97650000  1
  Ta  Ta1  1  0.50000000  0.75000000  0.22650000  1
  Ta  Ta1  1  0.50000000  0.75000000  0.47650000  1
  Ta  Ta1  1  0.50000000  0.75000000  0.72650000  1
  Ta  Ta1  1  0.50000000  0.75000000  0.97650000  1
  Ta  Ta1  1  0.75000000  0.00000000  0.22650000  1
  Ta  Ta1  1  0.75000000  0.00000000  0.47650000  1
  Ta  Ta1  1  0.75000000  0.00000000  0.72650000  1
  Ta  Ta1  1  0.75000000  0.00000000  0.97650000  1
  Ta  Ta1  1  0.75000000  0.25000000  0.22650000  1
  Ta  Ta1  1  0.75000000  0.25000000  0.47650000  1
  Ta  Ta1  1  0.75000000  0.25000000  0.72650000  1
  Ta  Ta1  1  0.75000000  0.25000000  0.97650000  1
  Ta  Ta1  1  0.75000000  0.50000000  0.22650000  1
  Ta  Ta1  1  0.75000000  0.50000000  0.47650000  1
  Ta  Ta1  1  0.75000000  0.50000000  0.72650000  1
  Ta  Ta1  1  0.75000000  0.50000000  0.97650000  1
  Ta  Ta1  1  0.75000000  0.75000000  0.22650000  1
  Ta  Ta1  1  0.75000000  0.75000000  0.47650000  1
  Ta  Ta1  1  0.75000000  0.75000000  0.72650000  1
  Ta  Ta1  1  0.75000000  0.75000000  0.97650000  1
  Ta  Ta2  1  0.08333333  0.16666667  0.21105000  1
  Ta  Ta2  1  0.08333333  0.16666667  0.46105000  1
  Ta  Ta2  1  0.08333333  0.16666667  0.71105000  1
  Ta  Ta2  1  0.08333333  0.16666667  0.96105000  1
  Ta  Ta2  1  0.08333333  0.41666667  0.21105000  1
  Ta  Ta2  1  0.08333333  0.41666667  0.46105000  1
  Ta  Ta2  1  0.08333333  0.41666667  0.71105000  1
  Ta  Ta2  1  0.08333333  0.41666667  0.96105000  1
  Ta  Ta2  1  0.08333333  0.66666667  0.21105000  1
  Ta  Ta2  1  0.08333333  0.66666667  0.46105000  1
  Ta  Ta2  1  0.08333333  0.66666667  0.71105000  1
  Ta  Ta2  1  0.08333333  0.66666667  0.96105000  1
  Ta  Ta2  1  0.08333333  0.91666667  0.21105000  1
  Ta  Ta2  1  0.08333333  0.91666667  0.46105000  1
  Ta  Ta2  1  0.08333333  0.91666667  0.71105000  1
  Ta  Ta2  1  0.08333333  0.91666667  0.96105000  1
  Ta  Ta2  1  0.33333333  0.16666667  0.21105000  1
  Ta  Ta2  1  0.33333333  0.16666667  0.46105000  1
  Ta  Ta2  1  0.33333333  0.16666667  0.71105000  1
  Ta  Ta2  1  0.33333333  0.16666667  0.96105000  1
  Ta  Ta2  1  0.33333333  0.41666667  0.21105000  1
  Ta  Ta2  1  0.33333333  0.41666667  0.46105000  1
  Ta  Ta2  1  0.33333333  0.41666667  0.71105000  1
  Ta  Ta2  1  0.33333333  0.41666667  0.96105000  1
  Ta  Ta2  1  0.33333333  0.66666667  0.21105000  1
  Ta  Ta2  1  0.33333333  0.66666667  0.46105000  1
  Ta  Ta2  1  0.33333333  0.66666667  0.71105000  1
  Ta  Ta2  1  0.33333333  0.66666667  0.96105000  1
  Ta  Ta2  1  0.33333333  0.91666667  0.21105000  1
  Ta  Ta2  1  0.33333333  0.91666667  0.46105000  1
  Ta  Ta2  1  0.33333333  0.91666667  0.71105000  1
  Ta  Ta2  1  0.33333333  0.91666667  0.96105000  1
  Ta  Ta2  1  0.58333333  0.16666667  0.21105000  1
  Ta  Ta2  1  0.58333333  0.16666667  0.46105000  1
  Ta  Ta2  1  0.58333333  0.16666667  0.71105000  1
  Ta  Ta2  1  0.58333333  0.16666667  0.96105000  1
  Ta  Ta2  1  0.58333333  0.41666667  0.21105000  1
  Ta  Ta2  1  0.58333333  0.41666667  0.46105000  1
  Ta  Ta2  1  0.58333333  0.41666667  0.71105000  1
  Ta  Ta2  1  0.58333333  0.41666667  0.96105000  1
  Ta  Ta2  1  0.58333333  0.66666667  0.21105000  1
  Ta  Ta2  1  0.58333333  0.66666667  0.46105000  1
  Ta  Ta2  1  0.58333333  0.66666667  0.71105000  1
  Ta  Ta2  1  0.58333333  0.66666667  0.96105000  1
  Ta  Ta2  1  0.58333333  0.91666667  0.21105000  1
  Ta  Ta2  1  0.58333333  0.91666667  0.46105000  1
  Ta  Ta2  1  0.58333333  0.91666667  0.71105000  1
  Ta  Ta2  1  0.58333333  0.91666667  0.96105000  1
  Ta  Ta2  1  0.83333333  0.16666667  0.21105000  1
  Ta  Ta2  1  0.83333333  0.16666667  0.46105000  1
  Ta  Ta2  1  0.83333333  0.16666667  0.71105000  1
  Ta  Ta2  1  0.83333333  0.16666667  0.96105000  1
  Ta  Ta2  1  0.83333333  0.41666667  0.21105000  1
  Ta  Ta2  1  0.83333333  0.41666667  0.46105000  1
  Ta  Ta2  1  0.83333333  0.41666667  0.71105000  1
  Ta  Ta2  1  0.83333333  0.41666667  0.96105000  1
  Ta  Ta2  1  0.83333333  0.66666667  0.21105000  1
  Ta  Ta2  1  0.83333333  0.66666667  0.46105000  1
  Ta  Ta2  1  0.83333333  0.66666667  0.71105000  1
  Ta  Ta2  1  0.83333333  0.66666667  0.96105000  1
  Ta  Ta2  1  0.83333333  0.91666667  0.21105000  1
  Ta  Ta2  1  0.83333333  0.91666667  0.46105000  1
  Ta  Ta2  1  0.83333333  0.91666667  0.71105000  1
  Ta  Ta2  1  0.83333333  0.91666667  0.96105000  1
  Ta  Ta2  1  0.16666667  0.08333333  0.08605000  1
  Ta  Ta2  1  0.16666667  0.08333333  0.33605000  1
  Ta  Ta2  1  0.16666667  0.08333333  0.58605000  1
  Ta  Ta2  1  0.16666667  0.08333333  0.83605000  1
  Ta  Ta2  1  0.16666667  0.33333333  0.08605000  1
  Ta  Ta2  1  0.16666667  0.33333333  0.33605000  1
  Ta  Ta2  1  0.16666667  0.33333333  0.58605000  1
  Ta  Ta2  1  0.16666667  0.33333333  0.83605000  1
  Ta  Ta2  1  0.16666667  0.58333333  0.08605000  1
  Ta  Ta2  1  0.16666667  0.58333333  0.33605000  1
  Ta  Ta2  1  0.16666667  0.58333333  0.58605000  1
  Ta  Ta2  1  0.16666667  0.58333333  0.83605000  1
  Ta  Ta2  1  0.16666667  0.83333333  0.08605000  1
  Ta  Ta2  1  0.16666667  0.83333333  0.33605000  1
  Ta  Ta2  1  0.16666667  0.83333333  0.58605000  1
  Ta  Ta2  1  0.16666667  0.83333333  0.83605000  1
  Ta  Ta2  1  0.41666667  0.08333333  0.08605000  1
  Ta  Ta2  1  0.41666667  0.08333333  0.33605000  1
  Ta  Ta2  1  0.41666667  0.08333333  0.58605000  1
  Ta  Ta2  1  0.41666667  0.08333333  0.83605000  1
  Ta  Ta2  1  0.41666667  0.33333333  0.08605000  1
  Ta  Ta2  1  0.41666667  0.33333333  0.33605000  1
  Ta  Ta2  1  0.41666667  0.33333333  0.58605000  1
  Ta  Ta2  1  0.41666667  0.33333333  0.83605000  1
  Ta  Ta2  1  0.41666667  0.58333333  0.08605000  1
  Ta  Ta2  1  0.41666667  0.58333333  0.33605000  1
  Ta  Ta2  1  0.41666667  0.58333333  0.58605000  1
  Ta  Ta2  1  0.41666667  0.58333333  0.83605000  1
  Ta  Ta2  1  0.41666667  0.83333333  0.08605000  1
  Ta  Ta2  1  0.41666667  0.83333333  0.33605000  1
  Ta  Ta2  1  0.41666667  0.83333333  0.58605000  1
  Ta  Ta2  1  0.41666667  0.83333333  0.83605000  1
  Ta  Ta2  1  0.66666667  0.08333333  0.08605000  1
  Ta  Ta2  1  0.66666667  0.08333333  0.33605000  1
  Ta  Ta2  1  0.66666667  0.08333333  0.58605000  1
  Ta  Ta2  1  0.66666667  0.08333333  0.83605000  1
  Ta  Ta2  1  0.66666667  0.33333333  0.08605000  1
  Ta  Ta2  1  0.66666667  0.33333333  0.33605000  1
  Ta  Ta2  1  0.66666667  0.33333333  0.58605000  1
  Ta  Ta2  1  0.66666667  0.33333333  0.83605000  1
  Ta  Ta2  1  0.66666667  0.58333333  0.08605000  1
  Ta  Ta2  1  0.66666667  0.58333333  0.33605000  1
  Ta  Ta2  1  0.66666667  0.58333333  0.58605000  1
  Ta  Ta2  1  0.66666667  0.58333333  0.83605000  1
  Ta  Ta2  1  0.66666667  0.83333333  0.08605000  1
  Ta  Ta2  1  0.66666667  0.83333333  0.33605000  1
  Ta  Ta2  1  0.66666667  0.83333333  0.58605000  1
  Ta  Ta2  1  0.66666667  0.83333333  0.83605000  1
  Ta  Ta2  1  0.91666667  0.08333333  0.08605000  1
  Ta  Ta2  1  0.91666667  0.08333333  0.33605000  1
  Ta  Ta2  1  0.91666667  0.08333333  0.58605000  1
  Ta  Ta2  1  0.91666667  0.08333333  0.83605000  1
  Ta  Ta2  1  0.91666667  0.33333333  0.08605000  1
  Ta  Ta2  1  0.91666667  0.33333333  0.33605000  1
  Ta  Ta2  1  0.91666667  0.33333333  0.58605000  1
  Ta  Ta2  1  0.91666667  0.33333333  0.83605000  1
  Ta  Ta2  1  0.91666667  0.58333333  0.08605000  1
  Ta  Ta2  1  0.91666667  0.58333333  0.33605000  1
  Ta  Ta2  1  0.91666667  0.58333333  0.58605000  1
  Ta  Ta2  1  0.91666667  0.58333333  0.83605000  1
  Ta  Ta2  1  0.91666667  0.83333333  0.08605000  1
  Ta  Ta2  1  0.91666667  0.83333333  0.33605000  1
  Ta  Ta2  1  0.91666667  0.83333333  0.58605000  1
  Ta  Ta2  1  0.91666667  0.83333333  0.83605000  1
  Ta  Ta2  1  0.08333333  0.16666667  0.16395000  1
  Ta  Ta2  1  0.08333333  0.16666667  0.41395000  1
  Ta  Ta2  1  0.08333333  0.16666667  0.66395000  1
  Ta  Ta2  1  0.08333333  0.16666667  0.91395000  1
  Ta  Ta2  1  0.08333333  0.41666667  0.16395000  1
  Ta  Ta2  1  0.08333333  0.41666667  0.41395000  1
  Ta  Ta2  1  0.08333333  0.41666667  0.66395000  1
  Ta  Ta2  1  0.08333333  0.41666667  0.91395000  1
  Ta  Ta2  1  0.08333333  0.66666667  0.16395000  1
  Ta  Ta2  1  0.08333333  0.66666667  0.41395000  1
  Ta  Ta2  1  0.08333333  0.66666667  0.66395000  1
  Ta  Ta2  1  0.08333333  0.66666667  0.91395000  1
  Ta  Ta2  1  0.08333333  0.91666667  0.16395000  1
  Ta  Ta2  1  0.08333333  0.91666667  0.41395000  1
  Ta  Ta2  1  0.08333333  0.91666667  0.66395000  1
  Ta  Ta2  1  0.08333333  0.91666667  0.91395000  1
  Ta  Ta2  1  0.33333333  0.16666667  0.16395000  1
  Ta  Ta2  1  0.33333333  0.16666667  0.41395000  1
  Ta  Ta2  1  0.33333333  0.16666667  0.66395000  1
  Ta  Ta2  1  0.33333333  0.16666667  0.91395000  1
  Ta  Ta2  1  0.33333333  0.41666667  0.16395000  1
  Ta  Ta2  1  0.33333333  0.41666667  0.41395000  1
  Ta  Ta2  1  0.33333333  0.41666667  0.66395000  1
  Ta  Ta2  1  0.33333333  0.41666667  0.91395000  1
  Ta  Ta2  1  0.33333333  0.66666667  0.16395000  1
  Ta  Ta2  1  0.33333333  0.66666667  0.41395000  1
  Ta  Ta2  1  0.33333333  0.66666667  0.66395000  1
  Ta  Ta2  1  0.33333333  0.66666667  0.91395000  1
  Ta  Ta2  1  0.33333333  0.91666667  0.16395000  1
  Ta  Ta2  1  0.33333333  0.91666667  0.41395000  1
  Ta  Ta2  1  0.33333333  0.91666667  0.66395000  1
  Ta  Ta2  1  0.33333333  0.91666667  0.91395000  1
  Ta  Ta2  1  0.58333333  0.16666667  0.16395000  1
  Ta  Ta2  1  0.58333333  0.16666667  0.41395000  1
  Ta  Ta2  1  0.58333333  0.16666667  0.66395000  1
  Ta  Ta2  1  0.58333333  0.16666667  0.91395000  1
  Ta  Ta2  1  0.58333333  0.41666667  0.16395000  1
  Ta  Ta2  1  0.58333333  0.41666667  0.41395000  1
  Ta  Ta2  1  0.58333333  0.41666667  0.66395000  1
  Ta  Ta2  1  0.58333333  0.41666667  0.91395000  1
  Ta  Ta2  1  0.58333333  0.66666667  0.16395000  1
  Ta  Ta2  1  0.58333333  0.66666667  0.41395000  1
  Ta  Ta2  1  0.58333333  0.66666667  0.66395000  1
  Ta  Ta2  1  0.58333333  0.66666667  0.91395000  1
  Ta  Ta2  1  0.58333333  0.91666667  0.16395000  1
  Ta  Ta2  1  0.58333333  0.91666667  0.41395000  1
  Ta  Ta2  1  0.58333333  0.91666667  0.66395000  1
  Ta  Ta2  1  0.58333333  0.91666667  0.91395000  1
  Ta  Ta2  1  0.83333333  0.16666667  0.16395000  1
  Ta  Ta2  1  0.83333333  0.16666667  0.41395000  1
  Ta  Ta2  1  0.83333333  0.16666667  0.66395000  1
  Ta  Ta2  1  0.83333333  0.16666667  0.91395000  1
  Ta  Ta2  1  0.83333333  0.41666667  0.16395000  1
  Ta  Ta2  1  0.83333333  0.41666667  0.41395000  1
  Ta  Ta2  1  0.83333333  0.41666667  0.66395000  1
  Ta  Ta2  1  0.83333333  0.41666667  0.91395000  1
  Ta  Ta2  1  0.83333333  0.66666667  0.16395000  1
  Ta  Ta2  1  0.83333333  0.66666667  0.41395000  1
  Ta  Ta2  1  0.83333333  0.66666667  0.66395000  1
  Ta  Ta2  1  0.83333333  0.66666667  0.91395000  1
  Ta  Ta2  1  0.83333333  0.91666667  0.16395000  1
  Ta  Ta2  1  0.83333333  0.91666667  0.41395000  1
  Ta  Ta2  1  0.83333333  0.91666667  0.66395000  1
  Ta  Ta2  1  0.83333333  0.91666667  0.91395000  1
  Ta  Ta2  1  0.16666667  0.08333333  0.03895000  1
  Ta  Ta2  1  0.16666667  0.08333333  0.28895000  1
  Ta  Ta2  1  0.16666667  0.08333333  0.53895000  1
  Ta  Ta2  1  0.16666667  0.08333333  0.78895000  1
  Ta  Ta2  1  0.16666667  0.33333333  0.03895000  1
  Ta  Ta2  1  0.16666667  0.33333333  0.28895000  1
  Ta  Ta2  1  0.16666667  0.33333333  0.53895000  1
  Ta  Ta2  1  0.16666667  0.33333333  0.78895000  1
  Ta  Ta2  1  0.16666667  0.58333333  0.03895000  1
  Ta  Ta2  1  0.16666667  0.58333333  0.28895000  1
  Ta  Ta2  1  0.16666667  0.58333333  0.53895000  1
  Ta  Ta2  1  0.16666667  0.58333333  0.78895000  1
  Ta  Ta2  1  0.16666667  0.83333333  0.03895000  1
  Ta  Ta2  1  0.16666667  0.83333333  0.28895000  1
  Ta  Ta2  1  0.16666667  0.83333333  0.53895000  1
  Ta  Ta2  1  0.16666667  0.83333333  0.78895000  1
  Ta  Ta2  1  0.41666667  0.08333333  0.03895000  1
  Ta  Ta2  1  0.41666667  0.08333333  0.28895000  1
  Ta  Ta2  1  0.41666667  0.08333333  0.53895000  1
  Ta  Ta2  1  0.41666667  0.08333333  0.78895000  1
  Ta  Ta2  1  0.41666667  0.33333333  0.03895000  1
  Ta  Ta2  1  0.41666667  0.33333333  0.28895000  1
  Ta  Ta2  1  0.41666667  0.33333333  0.53895000  1
  Ta  Ta2  1  0.41666667  0.33333333  0.78895000  1
  Ta  Ta2  1  0.41666667  0.58333333  0.03895000  1
  Ta  Ta2  1  0.41666667  0.58333333  0.28895000  1
  Ta  Ta2  1  0.41666667  0.58333333  0.53895000  1
  Ta  Ta2  1  0.41666667  0.58333333  0.78895000  1
  Ta  Ta2  1  0.41666667  0.83333333  0.03895000  1
  Ta  Ta2  1  0.41666667  0.83333333  0.28895000  1
  Ta  Ta2  1  0.41666667  0.83333333  0.53895000  1
  Ta  Ta2  1  0.41666667  0.83333333  0.78895000  1
  Ta  Ta2  1  0.66666667  0.08333333  0.03895000  1
  Ta  Ta2  1  0.66666667  0.08333333  0.28895000  1
  Ta  Ta2  1  0.66666667  0.08333333  0.53895000  1
  Ta  Ta2  1  0.66666667  0.08333333  0.78895000  1
  Ta  Ta2  1  0.66666667  0.33333333  0.03895000  1
  Ta  Ta2  1  0.66666667  0.33333333  0.28895000  1
  Ta  Ta2  1  0.66666667  0.33333333  0.53895000  1
  Ta  Ta2  1  0.66666667  0.33333333  0.78895000  1
  Ta  Ta2  1  0.66666667  0.58333333  0.03895000  1
  Ta  Ta2  1  0.66666667  0.58333333  0.28895000  1
  Ta  Ta2  1  0.66666667  0.58333333  0.53895000  1
  Ta  Ta2  1  0.66666667  0.58333333  0.78895000  1
  Ta  Ta2  1  0.66666667  0.83333333  0.03895000  1
  Ta  Ta2  1  0.66666667  0.83333333  0.28895000  1
  Ta  Ta2  1  0.66666667  0.83333333  0.53895000  1
  Ta  Ta2  1  0.66666667  0.83333333  0.78895000  1
  Ta  Ta2  1  0.91666667  0.08333333  0.03895000  1
  Ta  Ta2  1  0.91666667  0.08333333  0.28895000  1
  Ta  Ta2  1  0.91666667  0.08333333  0.53895000  1
  Ta  Ta2  1  0.91666667  0.08333333  0.78895000  1
  Ta  Ta2  1  0.91666667  0.33333333  0.03895000  1
  Ta  Ta2  1  0.91666667  0.33333333  0.28895000  1
  Ta  Ta2  1  0.91666667  0.33333333  0.53895000  1
  Ta  Ta2  1  0.91666667  0.33333333  0.78895000  1
  Ta  Ta2  1  0.91666667  0.58333333  0.03895000  1
  Ta  Ta2  1  0.91666667  0.58333333  0.28895000  1
  Ta  Ta2  1  0.91666667  0.58333333  0.53895000  1
  Ta  Ta2  1  0.91666667  0.58333333  0.78895000  1
  Ta  Ta2  1  0.91666667  0.83333333  0.03895000  1
  Ta  Ta2  1  0.91666667  0.83333333  0.28895000  1
  Ta  Ta2  1  0.91666667  0.83333333  0.53895000  1
  Ta  Ta2  1  0.91666667  0.83333333  0.78895000  1
  Co  Co1  1  0.08333333  0.16666667  0.03128500  1
  Co  Co1  1  0.08333333  0.16666667  0.28128500  1
  Co  Co1  1  0.08333333  0.16666667  0.53128500  1
  Co  Co1  1  0.08333333  0.16666667  0.78128500  1
  Co  Co1  1  0.08333333  0.41666667  0.03128500  1
  Co  Co1  1  0.08333333  0.41666667  0.28128500  1
  Co  Co1  1  0.08333333  0.41666667  0.53128500  1
  Co  Co1  1  0.08333333  0.41666667  0.78128500  1
  Co  Co1  1  0.08333333  0.66666667  0.03128500  1
  Co  Co1  1  0.08333333  0.66666667  0.28128500  1
  Co  Co1  1  0.08333333  0.66666667  0.53128500  1
  Co  Co1  1  0.08333333  0.66666667  0.78128500  1
  Co  Co1  1  0.08333333  0.91666667  0.03128500  1
  Co  Co1  1  0.08333333  0.91666667  0.28128500  1
  Co  Co1  1  0.08333333  0.91666667  0.53128500  1
  Co  Co1  1  0.08333333  0.91666667  0.78128500  1
  Co  Co1  1  0.33333333  0.16666667  0.03128500  1
  Co  Co1  1  0.33333333  0.16666667  0.28128500  1
  Co  Co1  1  0.33333333  0.16666667  0.53128500  1
  Co  Co1  1  0.33333333  0.16666667  0.78128500  1
  Co  Co1  1  0.33333333  0.41666667  0.03128500  1
  Co  Co1  1  0.33333333  0.41666667  0.28128500  1
  Co  Co1  1  0.33333333  0.41666667  0.53128500  1
  Co  Co1  1  0.33333333  0.41666667  0.78128500  1
  Co  Co1  1  0.33333333  0.66666667  0.03128500  1
  Co  Co1  1  0.33333333  0.66666667  0.28128500  1
  Co  Co1  1  0.33333333  0.66666667  0.53128500  1
  Co  Co1  1  0.33333333  0.66666667  0.78128500  1
  Co  Co1  1  0.33333333  0.91666667  0.03128500  1
  Co  Co1  1  0.33333333  0.91666667  0.28128500  1
  Co  Co1  1  0.33333333  0.91666667  0.53128500  1
  Co  Co1  1  0.33333333  0.91666667  0.78128500  1
  Co  Co1  1  0.58333333  0.16666667  0.03128500  1
  Co  Co1  1  0.58333333  0.16666667  0.28128500  1
  Co  Co1  1  0.58333333  0.16666667  0.53128500  1
  Co  Co1  1  0.58333333  0.16666667  0.78128500  1
  Co  Co1  1  0.58333333  0.41666667  0.03128500  1
  Co  Co1  1  0.58333333  0.41666667  0.28128500  1
  Co  Co1  1  0.58333333  0.41666667  0.53128500  1
  Co  Co1  1  0.58333333  0.41666667  0.78128500  1
  Co  Co1  1  0.58333333  0.66666667  0.03128500  1
  Co  Co1  1  0.58333333  0.66666667  0.28128500  1
  Co  Co1  1  0.58333333  0.66666667  0.53128500  1
  Co  Co1  1  0.58333333  0.66666667  0.78128500  1
  Co  Co1  1  0.58333333  0.91666667  0.03128500  1
  Co  Co1  1  0.58333333  0.91666667  0.28128500  1
  Co  Co1  1  0.58333333  0.91666667  0.53128500  1
  Co  Co1  1  0.58333333  0.91666667  0.78128500  1
  Co  Co1  1  0.83333333  0.16666667  0.03128500  1
  Co  Co1  1  0.83333333  0.16666667  0.28128500  1
  Co  Co1  1  0.83333333  0.16666667  0.53128500  1
  Co  Co1  1  0.83333333  0.16666667  0.78128500  1
  Co  Co1  1  0.83333333  0.41666667  0.03128500  1
  Co  Co1  1  0.83333333  0.41666667  0.28128500  1
  Co  Co1  1  0.83333333  0.41666667  0.53128500  1
  Co  Co1  1  0.83333333  0.41666667  0.78128500  1
  Co  Co1  1  0.83333333  0.66666667  0.03128500  1
  Co  Co1  1  0.83333333  0.66666667  0.28128500  1
  Co  Co1  1  0.83333333  0.66666667  0.53128500  1
  Co  Co1  1  0.83333333  0.66666667  0.78128500  1
  Co  Co1  1  0.83333333  0.91666667  0.03128500  1
  Co  Co1  1  0.83333333  0.91666667  0.28128500  1
  Co  Co1  1  0.83333333  0.91666667  0.53128500  1
  Co  Co1  1  0.83333333  0.91666667  0.78128500  1
  Co  Co1  1  0.16666667  0.08333333  0.15628500  1
  Co  Co1  1  0.16666667  0.08333333  0.40628500  1
  Co  Co1  1  0.16666667  0.08333333  0.65628500  1
  Co  Co1  1  0.16666667  0.08333333  0.90628500  1
  Co  Co1  1  0.16666667  0.33333333  0.15628500  1
  Co  Co1  1  0.16666667  0.33333333  0.40628500  1
  Co  Co1  1  0.16666667  0.33333333  0.65628500  1
  Co  Co1  1  0.16666667  0.33333333  0.90628500  1
  Co  Co1  1  0.16666667  0.58333333  0.15628500  1
  Co  Co1  1  0.16666667  0.58333333  0.40628500  1
  Co  Co1  1  0.16666667  0.58333333  0.65628500  1
  Co  Co1  1  0.16666667  0.58333333  0.90628500  1
  Co  Co1  1  0.16666667  0.83333333  0.15628500  1
  Co  Co1  1  0.16666667  0.83333333  0.40628500  1
  Co  Co1  1  0.16666667  0.83333333  0.65628500  1
  Co  Co1  1  0.16666667  0.83333333  0.90628500  1
  Co  Co1  1  0.41666667  0.08333333  0.15628500  1
  Co  Co1  1  0.41666667  0.08333333  0.40628500  1
  Co  Co1  1  0.41666667  0.08333333  0.65628500  1
  Co  Co1  1  0.41666667  0.08333333  0.90628500  1
  Co  Co1  1  0.41666667  0.33333333  0.15628500  1
  Co  Co1  1  0.41666667  0.33333333  0.40628500  1
  Co  Co1  1  0.41666667  0.33333333  0.65628500  1
  Co  Co1  1  0.41666667  0.33333333  0.90628500  1
  Co  Co1  1  0.41666667  0.58333333  0.15628500  1
  Co  Co1  1  0.41666667  0.58333333  0.40628500  1
  Co  Co1  1  0.41666667  0.58333333  0.65628500  1
  Co  Co1  1  0.41666667  0.58333333  0.90628500  1
  Co  Co1  1  0.41666667  0.83333333  0.15628500  1
  Co  Co1  1  0.41666667  0.83333333  0.40628500  1
  Co  Co1  1  0.41666667  0.83333333  0.65628500  1
  Co  Co1  1  0.41666667  0.83333333  0.90628500  1
  Co  Co1  1  0.66666667  0.08333333  0.15628500  1
  Co  Co1  1  0.66666667  0.08333333  0.40628500  1
  Co  Co1  1  0.66666667  0.08333333  0.65628500  1
  Co  Co1  1  0.66666667  0.08333333  0.90628500  1
  Co  Co1  1  0.66666667  0.33333333  0.15628500  1
  Co  Co1  1  0.66666667  0.33333333  0.40628500  1
  Co  Co1  1  0.66666667  0.33333333  0.65628500  1
  Co  Co1  1  0.66666667  0.33333333  0.90628500  1
  Co  Co1  1  0.66666667  0.58333333  0.15628500  1
  Co  Co1  1  0.66666667  0.58333333  0.40628500  1
  Co  Co1  1  0.66666667  0.58333333  0.65628500  1
  Co  Co1  1  0.66666667  0.58333333  0.90628500  1
  Co  Co1  1  0.66666667  0.83333333  0.15628500  1
  Co  Co1  1  0.66666667  0.83333333  0.40628500  1
  Co  Co1  1  0.66666667  0.83333333  0.65628500  1
  Co  Co1  1  0.66666667  0.83333333  0.90628500  1
  Co  Co1  1  0.91666667  0.08333333  0.15628500  1
  Co  Co1  1  0.91666667  0.08333333  0.40628500  1
  Co  Co1  1  0.91666667  0.08333333  0.65628500  1
  Co  Co1  1  0.91666667  0.08333333  0.90628500  1
  Co  Co1  1  0.91666667  0.33333333  0.15628500  1
  Co  Co1  1  0.91666667  0.33333333  0.40628500  1
  Co  Co1  1  0.91666667  0.33333333  0.65628500  1
  Co  Co1  1  0.91666667  0.33333333  0.90628500  1
  Co  Co1  1  0.91666667  0.58333333  0.15628500  1
  Co  Co1  1  0.91666667  0.58333333  0.40628500  1
  Co  Co1  1  0.91666667  0.58333333  0.65628500  1
  Co  Co1  1  0.91666667  0.58333333  0.90628500  1
  Co  Co1  1  0.91666667  0.83333333  0.15628500  1
  Co  Co1  1  0.91666667  0.83333333  0.40628500  1
  Co  Co1  1  0.91666667  0.83333333  0.65628500  1
  Co  Co1  1  0.91666667  0.83333333  0.90628500  1
  Co  Co1  1  0.08333333  0.16666667  0.09371500  1
  Co  Co1  1  0.08333333  0.16666667  0.34371500  1
  Co  Co1  1  0.08333333  0.16666667  0.59371500  1
  Co  Co1  1  0.08333333  0.16666667  0.84371500  1
  Co  Co1  1  0.08333333  0.41666667  0.09371500  1
  Co  Co1  1  0.08333333  0.41666667  0.34371500  1
  Co  Co1  1  0.08333333  0.41666667  0.59371500  1
  Co  Co1  1  0.08333333  0.41666667  0.84371500  1
  Co  Co1  1  0.08333333  0.66666667  0.09371500  1
  Co  Co1  1  0.08333333  0.66666667  0.34371500  1
  Co  Co1  1  0.08333333  0.66666667  0.59371500  1
  Co  Co1  1  0.08333333  0.66666667  0.84371500  1
  Co  Co1  1  0.08333333  0.91666667  0.09371500  1
  Co  Co1  1  0.08333333  0.91666667  0.34371500  1
  Co  Co1  1  0.08333333  0.91666667  0.59371500  1
  Co  Co1  1  0.08333333  0.91666667  0.84371500  1
  Co  Co1  1  0.33333333  0.16666667  0.09371500  1
  Co  Co1  1  0.33333333  0.16666667  0.34371500  1
  Co  Co1  1  0.33333333  0.16666667  0.59371500  1
  Co  Co1  1  0.33333333  0.16666667  0.84371500  1
  Co  Co1  1  0.33333333  0.41666667  0.09371500  1
  Co  Co1  1  0.33333333  0.41666667  0.34371500  1
  Co  Co1  1  0.33333333  0.41666667  0.59371500  1
  Co  Co1  1  0.33333333  0.41666667  0.84371500  1
  Co  Co1  1  0.33333333  0.66666667  0.09371500  1
  Co  Co1  1  0.33333333  0.66666667  0.34371500  1
  Co  Co1  1  0.33333333  0.66666667  0.59371500  1
  Co  Co1  1  0.33333333  0.66666667  0.84371500  1
  Co  Co1  1  0.33333333  0.91666667  0.09371500  1
  Co  Co1  1  0.33333333  0.91666667  0.34371500  1
  Co  Co1  1  0.33333333  0.91666667  0.59371500  1
  Co  Co1  1  0.33333333  0.91666667  0.84371500  1
  Co  Co1  1  0.58333333  0.16666667  0.09371500  1
  Co  Co1  1  0.58333333  0.16666667  0.34371500  1
  Co  Co1  1  0.58333333  0.16666667  0.59371500  1
  Co  Co1  1  0.58333333  0.16666667  0.84371500  1
  Co  Co1  1  0.58333333  0.41666667  0.09371500  1
  Co  Co1  1  0.58333333  0.41666667  0.34371500  1
  Co  Co1  1  0.58333333  0.41666667  0.59371500  1
  Co  Co1  1  0.58333333  0.41666667  0.84371500  1
  Co  Co1  1  0.58333333  0.66666667  0.09371500  1
  Co  Co1  1  0.58333333  0.66666667  0.34371500  1
  Co  Co1  1  0.58333333  0.66666667  0.59371500  1
  Co  Co1  1  0.58333333  0.66666667  0.84371500  1
  Co  Co1  1  0.58333333  0.91666667  0.09371500  1
  Co  Co1  1  0.58333333  0.91666667  0.34371500  1
  Co  Co1  1  0.58333333  0.91666667  0.59371500  1
  Co  Co1  1  0.58333333  0.91666667  0.84371500  1
  Co  Co1  1  0.83333333  0.16666667  0.09371500  1
  Co  Co1  1  0.83333333  0.16666667  0.34371500  1
  Co  Co1  1  0.83333333  0.16666667  0.59371500  1
  Co  Co1  1  0.83333333  0.16666667  0.84371500  1
  Co  Co1  1  0.83333333  0.41666667  0.09371500  1
  Co  Co1  1  0.83333333  0.41666667  0.34371500  1
  Co  Co1  1  0.83333333  0.41666667  0.59371500  1
  Co  Co1  1  0.83333333  0.41666667  0.84371500  1
  Co  Co1  1  0.83333333  0.66666667  0.09371500  1
  Co  Co1  1  0.83333333  0.66666667  0.34371500  1
  Co  Co1  1  0.83333333  0.66666667  0.59371500  1
  Co  Co1  1  0.83333333  0.66666667  0.84371500  1
  Co  Co1  1  0.83333333  0.91666667  0.09371500  1
  Co  Co1  1  0.83333333  0.91666667  0.34371500  1
  Co  Co1  1  0.83333333  0.91666667  0.59371500  1
  Co  Co1  1  0.83333333  0.91666667  0.84371500  1
  Co  Co1  1  0.16666667  0.08333333  0.21871500  1
  Co  Co1  1  0.16666667  0.08333333  0.46871500  1
  Co  Co1  1  0.16666667  0.08333333  0.71871500  1
  Co  Co1  1  0.16666667  0.08333333  0.96871500  1
  Co  Co1  1  0.16666667  0.33333333  0.21871500  1
  Co  Co1  1  0.16666667  0.33333333  0.46871500  1
  Co  Co1  1  0.16666667  0.33333333  0.71871500  1
  Co  Co1  1  0.16666667  0.33333333  0.96871500  1
  Co  Co1  1  0.16666667  0.58333333  0.21871500  1
  Co  Co1  1  0.16666667  0.58333333  0.46871500  1
  Co  Co1  1  0.16666667  0.58333333  0.71871500  1
  Co  Co1  1  0.16666667  0.58333333  0.96871500  1
  Co  Co1  1  0.16666667  0.83333333  0.21871500  1
  Co  Co1  1  0.16666667  0.83333333  0.46871500  1
  Co  Co1  1  0.16666667  0.83333333  0.71871500  1
  Co  Co1  1  0.16666667  0.83333333  0.96871500  1
  Co  Co1  1  0.41666667  0.08333333  0.21871500  1
  Co  Co1  1  0.41666667  0.08333333  0.46871500  1
  Co  Co1  1  0.41666667  0.08333333  0.71871500  1
  Co  Co1  1  0.41666667  0.08333333  0.96871500  1
  Co  Co1  1  0.41666667  0.33333333  0.21871500  1
  Co  Co1  1  0.41666667  0.33333333  0.46871500  1
  Co  Co1  1  0.41666667  0.33333333  0.71871500  1
  Co  Co1  1  0.41666667  0.33333333  0.96871500  1
  Co  Co1  1  0.41666667  0.58333333  0.21871500  1
  Co  Co1  1  0.41666667  0.58333333  0.46871500  1
  Co  Co1  1  0.41666667  0.58333333  0.71871500  1
  Co  Co1  1  0.41666667  0.58333333  0.96871500  1
  Co  Co1  1  0.41666667  0.83333333  0.21871500  1
  Co  Co1  1  0.41666667  0.83333333  0.46871500  1
  Co  Co1  1  0.41666667  0.83333333  0.71871500  1
  Co  Co1  1  0.41666667  0.83333333  0.96871500  1
  Co  Co1  1  0.66666667  0.08333333  0.21871500  1
  Co  Co1  1  0.66666667  0.08333333  0.46871500  1
  Co  Co1  1  0.66666667  0.08333333  0.71871500  1
  Co  Co1  1  0.66666667  0.08333333  0.96871500  1
  Co  Co1  1  0.66666667  0.33333333  0.21871500  1
  Co  Co1  1  0.66666667  0.33333333  0.46871500  1
  Co  Co1  1  0.66666667  0.33333333  0.71871500  1
  Co  Co1  1  0.66666667  0.33333333  0.96871500  1
  Co  Co1  1  0.66666667  0.58333333  0.21871500  1
  Co  Co1  1  0.66666667  0.58333333  0.46871500  1
  Co  Co1  1  0.66666667  0.58333333  0.71871500  1
  Co  Co1  1  0.66666667  0.58333333  0.96871500  1
  Co  Co1  1  0.66666667  0.83333333  0.21871500  1
  Co  Co1  1  0.66666667  0.83333333  0.46871500  1
  Co  Co1  1  0.66666667  0.83333333  0.71871500  1
  Co  Co1  1  0.66666667  0.83333333  0.96871500  1
  Co  Co1  1  0.91666667  0.08333333  0.21871500  1
  Co  Co1  1  0.91666667  0.08333333  0.46871500  1
  Co  Co1  1  0.91666667  0.08333333  0.71871500  1
  Co  Co1  1  0.91666667  0.08333333  0.96871500  1
  Co  Co1  1  0.91666667  0.33333333  0.21871500  1
  Co  Co1  1  0.91666667  0.33333333  0.46871500  1
  Co  Co1  1  0.91666667  0.33333333  0.71871500  1
  Co  Co1  1  0.91666667  0.33333333  0.96871500  1
  Co  Co1  1  0.91666667  0.58333333  0.21871500  1
  Co  Co1  1  0.91666667  0.58333333  0.46871500  1
  Co  Co1  1  0.91666667  0.58333333  0.71871500  1
  Co  Co1  1  0.91666667  0.58333333  0.96871500  1
  Co  Co1  1  0.91666667  0.83333333  0.21871500  1
  Co  Co1  1  0.91666667  0.83333333  0.46871500  1
  Co  Co1  1  0.91666667  0.83333333  0.71871500  1
  Co  Co1  1  0.91666667  0.83333333  0.96871500  1
  Co  Co3  1  0.04107250  0.08214500  0.06250000  1
  Co  Co3  1  0.04107250  0.08214500  0.31250000  1
  Co  Co3  1  0.04107250  0.08214500  0.56250000  1
  Co  Co3  1  0.04107250  0.08214500  0.81250000  1
  Co  Co3  1  0.04107250  0.33214500  0.06250000  1
  Co  Co3  1  0.04107250  0.33214500  0.31250000  1
  Co  Co3  1  0.04107250  0.33214500  0.56250000  1
  Co  Co3  1  0.04107250  0.33214500  0.81250000  1
  Co  Co3  1  0.04107250  0.58214500  0.06250000  1
  Co  Co3  1  0.04107250  0.58214500  0.31250000  1
  Co  Co3  1  0.04107250  0.58214500  0.56250000  1
  Co  Co3  1  0.04107250  0.58214500  0.81250000  1
  Co  Co3  1  0.04107250  0.83214500  0.06250000  1
  Co  Co3  1  0.04107250  0.83214500  0.31250000  1
  Co  Co3  1  0.04107250  0.83214500  0.56250000  1
  Co  Co3  1  0.04107250  0.83214500  0.81250000  1
  Co  Co3  1  0.29107250  0.08214500  0.06250000  1
  Co  Co3  1  0.29107250  0.08214500  0.31250000  1
  Co  Co3  1  0.29107250  0.08214500  0.56250000  1
  Co  Co3  1  0.29107250  0.08214500  0.81250000  1
  Co  Co3  1  0.29107250  0.33214500  0.06250000  1
  Co  Co3  1  0.29107250  0.33214500  0.31250000  1
  Co  Co3  1  0.29107250  0.33214500  0.56250000  1
  Co  Co3  1  0.29107250  0.33214500  0.81250000  1
  Co  Co3  1  0.29107250  0.58214500  0.06250000  1
  Co  Co3  1  0.29107250  0.58214500  0.31250000  1
  Co  Co3  1  0.29107250  0.58214500  0.56250000  1
  Co  Co3  1  0.29107250  0.58214500  0.81250000  1
  Co  Co3  1  0.29107250  0.83214500  0.06250000  1
  Co  Co3  1  0.29107250  0.83214500  0.31250000  1
  Co  Co3  1  0.29107250  0.83214500  0.56250000  1
  Co  Co3  1  0.29107250  0.83214500  0.81250000  1
  Co  Co3  1  0.54107250  0.08214500  0.06250000  1
  Co  Co3  1  0.54107250  0.08214500  0.31250000  1
  Co  Co3  1  0.54107250  0.08214500  0.56250000  1
  Co  Co3  1  0.54107250  0.08214500  0.81250000  1
  Co  Co3  1  0.54107250  0.33214500  0.06250000  1
  Co  Co3  1  0.54107250  0.33214500  0.31250000  1
  Co  Co3  1  0.54107250  0.33214500  0.56250000  1
  Co  Co3  1  0.54107250  0.33214500  0.81250000  1
  Co  Co3  1  0.54107250  0.58214500  0.06250000  1
  Co  Co3  1  0.54107250  0.58214500  0.31250000  1
  Co  Co3  1  0.54107250  0.58214500  0.56250000  1
  Co  Co3  1  0.54107250  0.58214500  0.81250000  1
  Co  Co3  1  0.54107250  0.83214500  0.06250000  1
  Co  Co3  1  0.54107250  0.83214500  0.31250000  1
  Co  Co3  1  0.54107250  0.83214500  0.56250000  1
  Co  Co3  1  0.54107250  0.83214500  0.81250000  1
  Co  Co3  1  0.79107250  0.08214500  0.06250000  1
  Co  Co3  1  0.79107250  0.08214500  0.31250000  1
  Co  Co3  1  0.79107250  0.08214500  0.56250000  1
  Co  Co3  1  0.79107250  0.08214500  0.81250000  1
  Co  Co3  1  0.79107250  0.33214500  0.06250000  1
  Co  Co3  1  0.79107250  0.33214500  0.31250000  1
  Co  Co3  1  0.79107250  0.33214500  0.56250000  1
  Co  Co3  1  0.79107250  0.33214500  0.81250000  1
  Co  Co3  1  0.79107250  0.58214500  0.06250000  1
  Co  Co3  1  0.79107250  0.58214500  0.31250000  1
  Co  Co3  1  0.79107250  0.58214500  0.56250000  1
  Co  Co3  1  0.79107250  0.58214500  0.81250000  1
  Co  Co3  1  0.79107250  0.83214500  0.06250000  1
  Co  Co3  1  0.79107250  0.83214500  0.31250000  1
  Co  Co3  1  0.79107250  0.83214500  0.56250000  1
  Co  Co3  1  0.79107250  0.83214500  0.81250000  1
  Co  Co3  1  0.20892750  0.04107250  0.18750000  1
  Co  Co3  1  0.20892750  0.04107250  0.43750000  1
  Co  Co3  1  0.20892750  0.04107250  0.68750000  1
  Co  Co3  1  0.20892750  0.04107250  0.93750000  1
  Co  Co3  1  0.20892750  0.29107250  0.18750000  1
  Co  Co3  1  0.20892750  0.29107250  0.43750000  1
  Co  Co3  1  0.20892750  0.29107250  0.68750000  1
  Co  Co3  1  0.20892750  0.29107250  0.93750000  1
  Co  Co3  1  0.20892750  0.54107250  0.18750000  1
  Co  Co3  1  0.20892750  0.54107250  0.43750000  1
  Co  Co3  1  0.20892750  0.54107250  0.68750000  1
  Co  Co3  1  0.20892750  0.54107250  0.93750000  1
  Co  Co3  1  0.20892750  0.79107250  0.18750000  1
  Co  Co3  1  0.20892750  0.79107250  0.43750000  1
  Co  Co3  1  0.20892750  0.79107250  0.68750000  1
  Co  Co3  1  0.20892750  0.79107250  0.93750000  1
  Co  Co3  1  0.45892750  0.04107250  0.18750000  1
  Co  Co3  1  0.45892750  0.04107250  0.43750000  1
  Co  Co3  1  0.45892750  0.04107250  0.68750000  1
  Co  Co3  1  0.45892750  0.04107250  0.93750000  1
  Co  Co3  1  0.45892750  0.29107250  0.18750000  1
  Co  Co3  1  0.45892750  0.29107250  0.43750000  1
  Co  Co3  1  0.45892750  0.29107250  0.68750000  1
  Co  Co3  1  0.45892750  0.29107250  0.93750000  1
  Co  Co3  1  0.45892750  0.54107250  0.18750000  1
  Co  Co3  1  0.45892750  0.54107250  0.43750000  1
  Co  Co3  1  0.45892750  0.54107250  0.68750000  1
  Co  Co3  1  0.45892750  0.54107250  0.93750000  1
  Co  Co3  1  0.45892750  0.79107250  0.18750000  1
  Co  Co3  1  0.45892750  0.79107250  0.43750000  1
  Co  Co3  1  0.45892750  0.79107250  0.68750000  1
  Co  Co3  1  0.45892750  0.79107250  0.93750000  1
  Co  Co3  1  0.70892750  0.04107250  0.18750000  1
  Co  Co3  1  0.70892750  0.04107250  0.43750000  1
  Co  Co3  1  0.70892750  0.04107250  0.68750000  1
  Co  Co3  1  0.70892750  0.04107250  0.93750000  1
  Co  Co3  1  0.70892750  0.29107250  0.18750000  1
  Co  Co3  1  0.70892750  0.29107250  0.43750000  1
  Co  Co3  1  0.70892750  0.29107250  0.68750000  1
  Co  Co3  1  0.70892750  0.29107250  0.93750000  1
  Co  Co3  1  0.70892750  0.54107250  0.18750000  1
  Co  Co3  1  0.70892750  0.54107250  0.43750000  1
  Co  Co3  1  0.70892750  0.54107250  0.68750000  1
  Co  Co3  1  0.70892750  0.54107250  0.93750000  1
  Co  Co3  1  0.70892750  0.79107250  0.18750000  1
  Co  Co3  1  0.70892750  0.79107250  0.43750000  1
  Co  Co3  1  0.70892750  0.79107250  0.68750000  1
  Co  Co3  1  0.70892750  0.79107250  0.93750000  1
  Co  Co3  1  0.95892750  0.04107250  0.18750000  1
  Co  Co3  1  0.95892750  0.04107250  0.43750000  1
  Co  Co3  1  0.95892750  0.04107250  0.68750000  1
  Co  Co3  1  0.95892750  0.04107250  0.93750000  1
  Co  Co3  1  0.95892750  0.29107250  0.18750000  1
  Co  Co3  1  0.95892750  0.29107250  0.43750000  1
  Co  Co3  1  0.95892750  0.29107250  0.68750000  1
  Co  Co3  1  0.95892750  0.29107250  0.93750000  1
  Co  Co3  1  0.95892750  0.54107250  0.18750000  1
  Co  Co3  1  0.95892750  0.54107250  0.43750000  1
  Co  Co3  1  0.95892750  0.54107250  0.68750000  1
  Co  Co3  1  0.95892750  0.54107250  0.93750000  1
  Co  Co3  1  0.95892750  0.79107250  0.18750000  1
  Co  Co3  1  0.95892750  0.79107250  0.43750000  1
  Co  Co3  1  0.95892750  0.79107250  0.68750000  1
  Co  Co3  1  0.95892750  0.79107250  0.93750000  1
  Co  Co3  1  0.16785500  0.20892750  0.06250000  1
  Co  Co3  1  0.16785500  0.20892750  0.31250000  1
  Co  Co3  1  0.16785500  0.20892750  0.56250000  1
  Co  Co3  1  0.16785500  0.20892750  0.81250000  1
  Co  Co3  1  0.16785500  0.45892750  0.06250000  1
  Co  Co3  1  0.16785500  0.45892750  0.31250000  1
  Co  Co3  1  0.16785500  0.45892750  0.56250000  1
  Co  Co3  1  0.16785500  0.45892750  0.81250000  1
  Co  Co3  1  0.16785500  0.70892750  0.06250000  1
  Co  Co3  1  0.16785500  0.70892750  0.31250000  1
  Co  Co3  1  0.16785500  0.70892750  0.56250000  1
  Co  Co3  1  0.16785500  0.70892750  0.81250000  1
  Co  Co3  1  0.16785500  0.95892750  0.06250000  1
  Co  Co3  1  0.16785500  0.95892750  0.31250000  1
  Co  Co3  1  0.16785500  0.95892750  0.56250000  1
  Co  Co3  1  0.16785500  0.95892750  0.81250000  1
  Co  Co3  1  0.41785500  0.20892750  0.06250000  1
  Co  Co3  1  0.41785500  0.20892750  0.31250000  1
  Co  Co3  1  0.41785500  0.20892750  0.56250000  1
  Co  Co3  1  0.41785500  0.20892750  0.81250000  1
  Co  Co3  1  0.41785500  0.45892750  0.06250000  1
  Co  Co3  1  0.41785500  0.45892750  0.31250000  1
  Co  Co3  1  0.41785500  0.45892750  0.56250000  1
  Co  Co3  1  0.41785500  0.45892750  0.81250000  1
  Co  Co3  1  0.41785500  0.70892750  0.06250000  1
  Co  Co3  1  0.41785500  0.70892750  0.31250000  1
  Co  Co3  1  0.41785500  0.70892750  0.56250000  1
  Co  Co3  1  0.41785500  0.70892750  0.81250000  1
  Co  Co3  1  0.41785500  0.95892750  0.06250000  1
  Co  Co3  1  0.41785500  0.95892750  0.31250000  1
  Co  Co3  1  0.41785500  0.95892750  0.56250000  1
  Co  Co3  1  0.41785500  0.95892750  0.81250000  1
  Co  Co3  1  0.66785500  0.20892750  0.06250000  1
  Co  Co3  1  0.66785500  0.20892750  0.31250000  1
  Co  Co3  1  0.66785500  0.20892750  0.56250000  1
  Co  Co3  1  0.66785500  0.20892750  0.81250000  1
  Co  Co3  1  0.66785500  0.45892750  0.06250000  1
  Co  Co3  1  0.66785500  0.45892750  0.31250000  1
  Co  Co3  1  0.66785500  0.45892750  0.56250000  1
  Co  Co3  1  0.66785500  0.45892750  0.81250000  1
  Co  Co3  1  0.66785500  0.70892750  0.06250000  1
  Co  Co3  1  0.66785500  0.70892750  0.31250000  1
  Co  Co3  1  0.66785500  0.70892750  0.56250000  1
  Co  Co3  1  0.66785500  0.70892750  0.81250000  1
  Co  Co3  1  0.66785500  0.95892750  0.06250000  1
  Co  Co3  1  0.66785500  0.95892750  0.31250000  1
  Co  Co3  1  0.66785500  0.95892750  0.56250000  1
  Co  Co3  1  0.66785500  0.95892750  0.81250000  1
  Co  Co3  1  0.91785500  0.20892750  0.06250000  1
  Co  Co3  1  0.91785500  0.20892750  0.31250000  1
  Co  Co3  1  0.91785500  0.20892750  0.56250000  1
  Co  Co3  1  0.91785500  0.20892750  0.81250000  1
  Co  Co3  1  0.91785500  0.45892750  0.06250000  1
  Co  Co3  1  0.91785500  0.45892750  0.31250000  1
  Co  Co3  1  0.91785500  0.45892750  0.56250000  1
  Co  Co3  1  0.91785500  0.45892750  0.81250000  1
  Co  Co3  1  0.91785500  0.70892750  0.06250000  1
  Co  Co3  1  0.91785500  0.70892750  0.31250000  1
  Co  Co3  1  0.91785500  0.70892750  0.56250000  1
  Co  Co3  1  0.91785500  0.70892750  0.81250000  1
  Co  Co3  1  0.91785500  0.95892750  0.06250000  1
  Co  Co3  1  0.91785500  0.95892750  0.31250000  1
  Co  Co3  1  0.91785500  0.95892750  0.56250000  1
  Co  Co3  1  0.91785500  0.95892750  0.81250000  1
  Co  Co3  1  0.20892750  0.16785500  0.18750000  1
  Co  Co3  1  0.20892750  0.16785500  0.43750000  1
  Co  Co3  1  0.20892750  0.16785500  0.68750000  1
  Co  Co3  1  0.20892750  0.16785500  0.93750000  1
  Co  Co3  1  0.20892750  0.41785500  0.18750000  1
  Co  Co3  1  0.20892750  0.41785500  0.43750000  1
  Co  Co3  1  0.20892750  0.41785500  0.68750000  1
  Co  Co3  1  0.20892750  0.41785500  0.93750000  1
  Co  Co3  1  0.20892750  0.66785500  0.18750000  1
  Co  Co3  1  0.20892750  0.66785500  0.43750000  1
  Co  Co3  1  0.20892750  0.66785500  0.68750000  1
  Co  Co3  1  0.20892750  0.66785500  0.93750000  1
  Co  Co3  1  0.20892750  0.91785500  0.18750000  1
  Co  Co3  1  0.20892750  0.91785500  0.43750000  1
  Co  Co3  1  0.20892750  0.91785500  0.68750000  1
  Co  Co3  1  0.20892750  0.91785500  0.93750000  1
  Co  Co3  1  0.45892750  0.16785500  0.18750000  1
  Co  Co3  1  0.45892750  0.16785500  0.43750000  1
  Co  Co3  1  0.45892750  0.16785500  0.68750000  1
  Co  Co3  1  0.45892750  0.16785500  0.93750000  1
  Co  Co3  1  0.45892750  0.41785500  0.18750000  1
  Co  Co3  1  0.45892750  0.41785500  0.43750000  1
  Co  Co3  1  0.45892750  0.41785500  0.68750000  1
  Co  Co3  1  0.45892750  0.41785500  0.93750000  1
  Co  Co3  1  0.45892750  0.66785500  0.18750000  1
  Co  Co3  1  0.45892750  0.66785500  0.43750000  1
  Co  Co3  1  0.45892750  0.66785500  0.68750000  1
  Co  Co3  1  0.45892750  0.66785500  0.93750000  1
  Co  Co3  1  0.45892750  0.91785500  0.18750000  1
  Co  Co3  1  0.45892750  0.91785500  0.43750000  1
  Co  Co3  1  0.45892750  0.91785500  0.68750000  1
  Co  Co3  1  0.45892750  0.91785500  0.93750000  1
  Co  Co3  1  0.70892750  0.16785500  0.18750000  1
  Co  Co3  1  0.70892750  0.16785500  0.43750000  1
  Co  Co3  1  0.70892750  0.16785500  0.68750000  1
  Co  Co3  1  0.70892750  0.16785500  0.93750000  1
  Co  Co3  1  0.70892750  0.41785500  0.18750000  1
  Co  Co3  1  0.70892750  0.41785500  0.43750000  1
  Co  Co3  1  0.70892750  0.41785500  0.68750000  1
  Co  Co3  1  0.70892750  0.41785500  0.93750000  1
  Co  Co3  1  0.70892750  0.66785500  0.18750000  1
  Co  Co3  1  0.70892750  0.66785500  0.43750000  1
  Co  Co3  1  0.70892750  0.66785500  0.68750000  1
  Co  Co3  1  0.70892750  0.66785500  0.93750000  1
  Co  Co3  1  0.70892750  0.91785500  0.18750000  1
  Co  Co3  1  0.70892750  0.91785500  0.43750000  1
  Co  Co3  1  0.70892750  0.91785500  0.68750000  1
  Co  Co3  1  0.70892750  0.91785500  0.93750000  1
  Co  Co3  1  0.95892750  0.16785500  0.18750000  1
  Co  Co3  1  0.95892750  0.16785500  0.43750000  1
  Co  Co3  1  0.95892750  0.16785500  0.68750000  1
  Co  Co3  1  0.95892750  0.16785500  0.93750000  1
  Co  Co3  1  0.95892750  0.41785500  0.18750000  1
  Co  Co3  1  0.95892750  0.41785500  0.43750000  1
  Co  Co3  1  0.95892750  0.41785500  0.68750000  1
  Co  Co3  1  0.95892750  0.41785500  0.93750000  1
  Co  Co3  1  0.95892750  0.66785500  0.18750000  1
  Co  Co3  1  0.95892750  0.66785500  0.43750000  1
  Co  Co3  1  0.95892750  0.66785500  0.68750000  1
  Co  Co3  1  0.95892750  0.66785500  0.93750000  1
  Co  Co3  1  0.95892750  0.91785500  0.18750000  1
  Co  Co3  1  0.95892750  0.91785500  0.43750000  1
  Co  Co3  1  0.95892750  0.91785500  0.68750000  1
  Co  Co3  1  0.95892750  0.91785500  0.93750000  1
  Co  Co3  1  0.04107250  0.20892750  0.06250000  1
  Co  Co3  1  0.04107250  0.20892750  0.31250000  1
  Co  Co3  1  0.04107250  0.20892750  0.56250000  1
  Co  Co3  1  0.04107250  0.20892750  0.81250000  1
  Co  Co3  1  0.04107250  0.45892750  0.06250000  1
  Co  Co3  1  0.04107250  0.45892750  0.31250000  1
  Co  Co3  1  0.04107250  0.45892750  0.56250000  1
  Co  Co3  1  0.04107250  0.45892750  0.81250000  1
  Co  Co3  1  0.04107250  0.70892750  0.06250000  1
  Co  Co3  1  0.04107250  0.70892750  0.31250000  1
  Co  Co3  1  0.04107250  0.70892750  0.56250000  1
  Co  Co3  1  0.04107250  0.70892750  0.81250000  1
  Co  Co3  1  0.04107250  0.95892750  0.06250000  1
  Co  Co3  1  0.04107250  0.95892750  0.31250000  1
  Co  Co3  1  0.04107250  0.95892750  0.56250000  1
  Co  Co3  1  0.04107250  0.95892750  0.81250000  1
  Co  Co3  1  0.29107250  0.20892750  0.06250000  1
  Co  Co3  1  0.29107250  0.20892750  0.31250000  1
  Co  Co3  1  0.29107250  0.20892750  0.56250000  1
  Co  Co3  1  0.29107250  0.20892750  0.81250000  1
  Co  Co3  1  0.29107250  0.45892750  0.06250000  1
  Co  Co3  1  0.29107250  0.45892750  0.31250000  1
  Co  Co3  1  0.29107250  0.45892750  0.56250000  1
  Co  Co3  1  0.29107250  0.45892750  0.81250000  1
  Co  Co3  1  0.29107250  0.70892750  0.06250000  1
  Co  Co3  1  0.29107250  0.70892750  0.31250000  1
  Co  Co3  1  0.29107250  0.70892750  0.56250000  1
  Co  Co3  1  0.29107250  0.70892750  0.81250000  1
  Co  Co3  1  0.29107250  0.95892750  0.06250000  1
  Co  Co3  1  0.29107250  0.95892750  0.31250000  1
  Co  Co3  1  0.29107250  0.95892750  0.56250000  1
  Co  Co3  1  0.29107250  0.95892750  0.81250000  1
  Co  Co3  1  0.54107250  0.20892750  0.06250000  1
  Co  Co3  1  0.54107250  0.20892750  0.31250000  1
  Co  Co3  1  0.54107250  0.20892750  0.56250000  1
  Co  Co3  1  0.54107250  0.20892750  0.81250000  1
  Co  Co3  1  0.54107250  0.45892750  0.06250000  1
  Co  Co3  1  0.54107250  0.45892750  0.31250000  1
  Co  Co3  1  0.54107250  0.45892750  0.56250000  1
  Co  Co3  1  0.54107250  0.45892750  0.81250000  1
  Co  Co3  1  0.54107250  0.70892750  0.06250000  1
  Co  Co3  1  0.54107250  0.70892750  0.31250000  1
  Co  Co3  1  0.54107250  0.70892750  0.56250000  1
  Co  Co3  1  0.54107250  0.70892750  0.81250000  1
  Co  Co3  1  0.54107250  0.95892750  0.06250000  1
  Co  Co3  1  0.54107250  0.95892750  0.31250000  1
  Co  Co3  1  0.54107250  0.95892750  0.56250000  1
  Co  Co3  1  0.54107250  0.95892750  0.81250000  1
  Co  Co3  1  0.79107250  0.20892750  0.06250000  1
  Co  Co3  1  0.79107250  0.20892750  0.31250000  1
  Co  Co3  1  0.79107250  0.20892750  0.56250000  1
  Co  Co3  1  0.79107250  0.20892750  0.81250000  1
  Co  Co3  1  0.79107250  0.45892750  0.06250000  1
  Co  Co3  1  0.79107250  0.45892750  0.31250000  1
  Co  Co3  1  0.79107250  0.45892750  0.56250000  1
  Co  Co3  1  0.79107250  0.45892750  0.81250000  1
  Co  Co3  1  0.79107250  0.70892750  0.06250000  1
  Co  Co3  1  0.79107250  0.70892750  0.31250000  1
  Co  Co3  1  0.79107250  0.70892750  0.56250000  1
  Co  Co3  1  0.79107250  0.70892750  0.81250000  1
  Co  Co3  1  0.79107250  0.95892750  0.06250000  1
  Co  Co3  1  0.79107250  0.95892750  0.31250000  1
  Co  Co3  1  0.79107250  0.95892750  0.56250000  1
  Co  Co3  1  0.79107250  0.95892750  0.81250000  1
  Co  Co3  1  0.08214500  0.04107250  0.18750000  1
  Co  Co3  1  0.08214500  0.04107250  0.43750000  1
  Co  Co3  1  0.08214500  0.04107250  0.68750000  1
  Co  Co3  1  0.08214500  0.04107250  0.93750000  1
  Co  Co3  1  0.08214500  0.29107250  0.18750000  1
  Co  Co3  1  0.08214500  0.29107250  0.43750000  1
  Co  Co3  1  0.08214500  0.29107250  0.68750000  1
  Co  Co3  1  0.08214500  0.29107250  0.93750000  1
  Co  Co3  1  0.08214500  0.54107250  0.18750000  1
  Co  Co3  1  0.08214500  0.54107250  0.43750000  1
  Co  Co3  1  0.08214500  0.54107250  0.68750000  1
  Co  Co3  1  0.08214500  0.54107250  0.93750000  1
  Co  Co3  1  0.08214500  0.79107250  0.18750000  1
  Co  Co3  1  0.08214500  0.79107250  0.43750000  1
  Co  Co3  1  0.08214500  0.79107250  0.68750000  1
  Co  Co3  1  0.08214500  0.79107250  0.93750000  1
  Co  Co3  1  0.33214500  0.04107250  0.18750000  1
  Co  Co3  1  0.33214500  0.04107250  0.43750000  1
  Co  Co3  1  0.33214500  0.04107250  0.68750000  1
  Co  Co3  1  0.33214500  0.04107250  0.93750000  1
  Co  Co3  1  0.33214500  0.29107250  0.18750000  1
  Co  Co3  1  0.33214500  0.29107250  0.43750000  1
  Co  Co3  1  0.33214500  0.29107250  0.68750000  1
  Co  Co3  1  0.33214500  0.29107250  0.93750000  1
  Co  Co3  1  0.33214500  0.54107250  0.18750000  1
  Co  Co3  1  0.33214500  0.54107250  0.43750000  1
  Co  Co3  1  0.33214500  0.54107250  0.68750000  1
  Co  Co3  1  0.33214500  0.54107250  0.93750000  1
  Co  Co3  1  0.33214500  0.79107250  0.18750000  1
  Co  Co3  1  0.33214500  0.79107250  0.43750000  1
  Co  Co3  1  0.33214500  0.79107250  0.68750000  1
  Co  Co3  1  0.33214500  0.79107250  0.93750000  1
  Co  Co3  1  0.58214500  0.04107250  0.18750000  1
  Co  Co3  1  0.58214500  0.04107250  0.43750000  1
  Co  Co3  1  0.58214500  0.04107250  0.68750000  1
  Co  Co3  1  0.58214500  0.04107250  0.93750000  1
  Co  Co3  1  0.58214500  0.29107250  0.18750000  1
  Co  Co3  1  0.58214500  0.29107250  0.43750000  1
  Co  Co3  1  0.58214500  0.29107250  0.68750000  1
  Co  Co3  1  0.58214500  0.29107250  0.93750000  1
  Co  Co3  1  0.58214500  0.54107250  0.18750000  1
  Co  Co3  1  0.58214500  0.54107250  0.43750000  1
  Co  Co3  1  0.58214500  0.54107250  0.68750000  1
  Co  Co3  1  0.58214500  0.54107250  0.93750000  1
  Co  Co3  1  0.58214500  0.79107250  0.18750000  1
  Co  Co3  1  0.58214500  0.79107250  0.43750000  1
  Co  Co3  1  0.58214500  0.79107250  0.68750000  1
  Co  Co3  1  0.58214500  0.79107250  0.93750000  1
  Co  Co3  1  0.83214500  0.04107250  0.18750000  1
  Co  Co3  1  0.83214500  0.04107250  0.43750000  1
  Co  Co3  1  0.83214500  0.04107250  0.68750000  1
  Co  Co3  1  0.83214500  0.04107250  0.93750000  1
  Co  Co3  1  0.83214500  0.29107250  0.18750000  1
  Co  Co3  1  0.83214500  0.29107250  0.43750000  1
  Co  Co3  1  0.83214500  0.29107250  0.68750000  1
  Co  Co3  1  0.83214500  0.29107250  0.93750000  1
  Co  Co3  1  0.83214500  0.54107250  0.18750000  1
  Co  Co3  1  0.83214500  0.54107250  0.43750000  1
  Co  Co3  1  0.83214500  0.54107250  0.68750000  1
  Co  Co3  1  0.83214500  0.54107250  0.93750000  1
  Co  Co3  1  0.83214500  0.79107250  0.18750000  1
  Co  Co3  1  0.83214500  0.79107250  0.43750000  1
  Co  Co3  1  0.83214500  0.79107250  0.68750000  1
  Co  Co3  1  0.83214500  0.79107250  0.93750000  1
  Co  Co2  1  0.12500000  0.00000000  0.00000000  1
  Co  Co2  1  0.12500000  0.00000000  0.25000000  1
  Co  Co2  1  0.12500000  0.00000000  0.50000000  1
  Co  Co2  1  0.12500000  0.00000000  0.75000000  1
  Co  Co2  1  0.12500000  0.25000000  0.00000000  1
  Co  Co2  1  0.12500000  0.25000000  0.25000000  1
  Co  Co2  1  0.12500000  0.25000000  0.50000000  1
  Co  Co2  1  0.12500000  0.25000000  0.75000000  1
  Co  Co2  1  0.12500000  0.50000000  0.00000000  1
  Co  Co2  1  0.12500000  0.50000000  0.25000000  1
  Co  Co2  1  0.12500000  0.50000000  0.50000000  1
  Co  Co2  1  0.12500000  0.50000000  0.75000000  1
  Co  Co2  1  0.12500000  0.75000000  0.00000000  1
  Co  Co2  1  0.12500000  0.75000000  0.25000000  1
  Co  Co2  1  0.12500000  0.75000000  0.50000000  1
  Co  Co2  1  0.12500000  0.75000000  0.75000000  1
  Co  Co2  1  0.37500000  0.00000000  0.00000000  1
  Co  Co2  1  0.37500000  0.00000000  0.25000000  1
  Co  Co2  1  0.37500000  0.00000000  0.50000000  1
  Co  Co2  1  0.37500000  0.00000000  0.75000000  1
  Co  Co2  1  0.37500000  0.25000000  0.00000000  1
  Co  Co2  1  0.37500000  0.25000000  0.25000000  1
  Co  Co2  1  0.37500000  0.25000000  0.50000000  1
  Co  Co2  1  0.37500000  0.25000000  0.75000000  1
  Co  Co2  1  0.37500000  0.50000000  0.00000000  1
  Co  Co2  1  0.37500000  0.50000000  0.25000000  1
  Co  Co2  1  0.37500000  0.50000000  0.50000000  1
  Co  Co2  1  0.37500000  0.50000000  0.75000000  1
  Co  Co2  1  0.37500000  0.75000000  0.00000000  1
  Co  Co2  1  0.37500000  0.75000000  0.25000000  1
  Co  Co2  1  0.37500000  0.75000000  0.50000000  1
  Co  Co2  1  0.37500000  0.75000000  0.75000000  1
  Co  Co2  1  0.62500000  0.00000000  0.00000000  1
  Co  Co2  1  0.62500000  0.00000000  0.25000000  1
  Co  Co2  1  0.62500000  0.00000000  0.50000000  1
  Co  Co2  1  0.62500000  0.00000000  0.75000000  1
  Co  Co2  1  0.62500000  0.25000000  0.00000000  1
  Co  Co2  1  0.62500000  0.25000000  0.25000000  1
  Co  Co2  1  0.62500000  0.25000000  0.50000000  1
  Co  Co2  1  0.62500000  0.25000000  0.75000000  1
  Co  Co2  1  0.62500000  0.50000000  0.00000000  1
  Co  Co2  1  0.62500000  0.50000000  0.25000000  1
  Co  Co2  1  0.62500000  0.50000000  0.50000000  1
  Co  Co2  1  0.62500000  0.50000000  0.75000000  1
  Co  Co2  1  0.62500000  0.75000000  0.00000000  1
  Co  Co2  1  0.62500000  0.75000000  0.25000000  1
  Co  Co2  1  0.62500000  0.75000000  0.50000000  1
  Co  Co2  1  0.62500000  0.75000000  0.75000000  1
  Co  Co2  1  0.87500000  0.00000000  0.00000000  1
  Co  Co2  1  0.87500000  0.00000000  0.25000000  1
  Co  Co2  1  0.87500000  0.00000000  0.50000000  1
  Co  Co2  1  0.87500000  0.00000000  0.75000000  1
  Co  Co2  1  0.87500000  0.25000000  0.00000000  1
  Co  Co2  1  0.87500000  0.25000000  0.25000000  1
  Co  Co2  1  0.87500000  0.25000000  0.50000000  1
  Co  Co2  1  0.87500000  0.25000000  0.75000000  1
  Co  Co2  1  0.87500000  0.50000000  0.00000000  1
  Co  Co2  1  0.87500000  0.50000000  0.25000000  1
  Co  Co2  1  0.87500000  0.50000000  0.50000000  1
  Co  Co2  1  0.87500000  0.50000000  0.75000000  1
  Co  Co2  1  0.87500000  0.75000000  0.00000000  1
  Co  Co2  1  0.87500000  0.75000000  0.25000000  1
  Co  Co2  1  0.87500000  0.75000000  0.50000000  1
  Co  Co2  1  0.87500000  0.75000000  0.75000000  1
  Co  Co2  1  0.12500000  0.12500000  0.12500000  1
  Co  Co2  1  0.12500000  0.12500000  0.37500000  1
  Co  Co2  1  0.12500000  0.12500000  0.62500000  1
  Co  Co2  1  0.12500000  0.12500000  0.87500000  1
  Co  Co2  1  0.12500000  0.37500000  0.12500000  1
  Co  Co2  1  0.12500000  0.37500000  0.37500000  1
  Co  Co2  1  0.12500000  0.37500000  0.62500000  1
  Co  Co2  1  0.12500000  0.37500000  0.87500000  1
  Co  Co2  1  0.12500000  0.62500000  0.12500000  1
  Co  Co2  1  0.12500000  0.62500000  0.37500000  1
  Co  Co2  1  0.12500000  0.62500000  0.62500000  1
  Co  Co2  1  0.12500000  0.62500000  0.87500000  1
  Co  Co2  1  0.12500000  0.87500000  0.12500000  1
  Co  Co2  1  0.12500000  0.87500000  0.37500000  1
  Co  Co2  1  0.12500000  0.87500000  0.62500000  1
  Co  Co2  1  0.12500000  0.87500000  0.87500000  1
  Co  Co2  1  0.37500000  0.12500000  0.12500000  1
  Co  Co2  1  0.37500000  0.12500000  0.37500000  1
  Co  Co2  1  0.37500000  0.12500000  0.62500000  1
  Co  Co2  1  0.37500000  0.12500000  0.87500000  1
  Co  Co2  1  0.37500000  0.37500000  0.12500000  1
  Co  Co2  1  0.37500000  0.37500000  0.37500000  1
  Co  Co2  1  0.37500000  0.37500000  0.62500000  1
  Co  Co2  1  0.37500000  0.37500000  0.87500000  1
  Co  Co2  1  0.37500000  0.62500000  0.12500000  1
  Co  Co2  1  0.37500000  0.62500000  0.37500000  1
  Co  Co2  1  0.37500000  0.62500000  0.62500000  1
  Co  Co2  1  0.37500000  0.62500000  0.87500000  1
  Co  Co2  1  0.37500000  0.87500000  0.12500000  1
  Co  Co2  1  0.37500000  0.87500000  0.37500000  1
  Co  Co2  1  0.37500000  0.87500000  0.62500000  1
  Co  Co2  1  0.37500000  0.87500000  0.87500000  1
  Co  Co2  1  0.62500000  0.12500000  0.12500000  1
  Co  Co2  1  0.62500000  0.12500000  0.37500000  1
  Co  Co2  1  0.62500000  0.12500000  0.62500000  1
  Co  Co2  1  0.62500000  0.12500000  0.87500000  1
  Co  Co2  1  0.62500000  0.37500000  0.12500000  1
  Co  Co2  1  0.62500000  0.37500000  0.37500000  1
  Co  Co2  1  0.62500000  0.37500000  0.62500000  1
  Co  Co2  1  0.62500000  0.37500000  0.87500000  1
  Co  Co2  1  0.62500000  0.62500000  0.12500000  1
  Co  Co2  1  0.62500000  0.62500000  0.37500000  1
  Co  Co2  1  0.62500000  0.62500000  0.62500000  1
  Co  Co2  1  0.62500000  0.62500000  0.87500000  1
  Co  Co2  1  0.62500000  0.87500000  0.12500000  1
  Co  Co2  1  0.62500000  0.87500000  0.37500000  1
  Co  Co2  1  0.62500000  0.87500000  0.62500000  1
  Co  Co2  1  0.62500000  0.87500000  0.87500000  1
  Co  Co2  1  0.87500000  0.12500000  0.12500000  1
  Co  Co2  1  0.87500000  0.12500000  0.37500000  1
  Co  Co2  1  0.87500000  0.12500000  0.62500000  1
  Co  Co2  1  0.87500000  0.12500000  0.87500000  1
  Co  Co2  1  0.87500000  0.37500000  0.12500000  1
  Co  Co2  1  0.87500000  0.37500000  0.37500000  1
  Co  Co2  1  0.87500000  0.37500000  0.62500000  1
  Co  Co2  1  0.87500000  0.37500000  0.87500000  1
  Co  Co2  1  0.87500000  0.62500000  0.12500000  1
  Co  Co2  1  0.87500000  0.62500000  0.37500000  1
  Co  Co2  1  0.87500000  0.62500000  0.62500000  1
  Co  Co2  1  0.87500000  0.62500000  0.87500000  1
  Co  Co2  1  0.87500000  0.87500000  0.12500000  1
  Co  Co2  1  0.87500000  0.87500000  0.37500000  1
  Co  Co2  1  0.87500000  0.87500000  0.62500000  1
  Co  Co2  1  0.87500000  0.87500000  0.87500000  1
  Co  Co2  1  0.00000000  0.12500000  0.00000000  1
  Co  Co2  1  0.00000000  0.12500000  0.25000000  1
  Co  Co2  1  0.00000000  0.12500000  0.50000000  1
  Co  Co2  1  0.00000000  0.12500000  0.75000000  1
  Co  Co2  1  0.00000000  0.37500000  0.00000000  1
  Co  Co2  1  0.00000000  0.37500000  0.25000000  1
  Co  Co2  1  0.00000000  0.37500000  0.50000000  1
  Co  Co2  1  0.00000000  0.37500000  0.75000000  1
  Co  Co2  1  0.00000000  0.62500000  0.00000000  1
  Co  Co2  1  0.00000000  0.62500000  0.25000000  1
  Co  Co2  1  0.00000000  0.62500000  0.50000000  1
  Co  Co2  1  0.00000000  0.62500000  0.75000000  1
  Co  Co2  1  0.00000000  0.87500000  0.00000000  1
  Co  Co2  1  0.00000000  0.87500000  0.25000000  1
  Co  Co2  1  0.00000000  0.87500000  0.50000000  1
  Co  Co2  1  0.00000000  0.87500000  0.75000000  1
  Co  Co2  1  0.25000000  0.12500000  0.00000000  1
  Co  Co2  1  0.25000000  0.12500000  0.25000000  1
  Co  Co2  1  0.25000000  0.12500000  0.50000000  1
  Co  Co2  1  0.25000000  0.12500000  0.75000000  1
  Co  Co2  1  0.25000000  0.37500000  0.00000000  1
  Co  Co2  1  0.25000000  0.37500000  0.25000000  1
  Co  Co2  1  0.25000000  0.37500000  0.50000000  1
  Co  Co2  1  0.25000000  0.37500000  0.75000000  1
  Co  Co2  1  0.25000000  0.62500000  0.00000000  1
  Co  Co2  1  0.25000000  0.62500000  0.25000000  1
  Co  Co2  1  0.25000000  0.62500000  0.50000000  1
  Co  Co2  1  0.25000000  0.62500000  0.75000000  1
  Co  Co2  1  0.25000000  0.87500000  0.00000000  1
  Co  Co2  1  0.25000000  0.87500000  0.25000000  1
  Co  Co2  1  0.25000000  0.87500000  0.50000000  1
  Co  Co2  1  0.25000000  0.87500000  0.75000000  1
  Co  Co2  1  0.50000000  0.12500000  0.00000000  1
  Co  Co2  1  0.50000000  0.12500000  0.25000000  1
  Co  Co2  1  0.50000000  0.12500000  0.50000000  1
  Co  Co2  1  0.50000000  0.12500000  0.75000000  1
  Co  Co2  1  0.50000000  0.37500000  0.00000000  1
  Co  Co2  1  0.50000000  0.37500000  0.25000000  1
  Co  Co2  1  0.50000000  0.37500000  0.50000000  1
  Co  Co2  1  0.50000000  0.37500000  0.75000000  1
  Co  Co2  1  0.50000000  0.62500000  0.00000000  1
  Co  Co2  1  0.50000000  0.62500000  0.25000000  1
  Co  Co2  1  0.50000000  0.62500000  0.50000000  1
  Co  Co2  1  0.50000000  0.62500000  0.75000000  1
  Co  Co2  1  0.50000000  0.87500000  0.00000000  1
  Co  Co2  1  0.50000000  0.87500000  0.25000000  1
  Co  Co2  1  0.50000000  0.87500000  0.50000000  1
  Co  Co2  1  0.50000000  0.87500000  0.75000000  1
  Co  Co2  1  0.75000000  0.12500000  0.00000000  1
  Co  Co2  1  0.75000000  0.12500000  0.25000000  1
  Co  Co2  1  0.75000000  0.12500000  0.50000000  1
  Co  Co2  1  0.75000000  0.12500000  0.75000000  1
  Co  Co2  1  0.75000000  0.37500000  0.00000000  1
  Co  Co2  1  0.75000000  0.37500000  0.25000000  1
  Co  Co2  1  0.75000000  0.37500000  0.50000000  1
  Co  Co2  1  0.75000000  0.37500000  0.75000000  1
  Co  Co2  1  0.75000000  0.62500000  0.00000000  1
  Co  Co2  1  0.75000000  0.62500000  0.25000000  1
  Co  Co2  1  0.75000000  0.62500000  0.50000000  1
  Co  Co2  1  0.75000000  0.62500000  0.75000000  1
  Co  Co2  1  0.75000000  0.87500000  0.00000000  1
  Co  Co2  1  0.75000000  0.87500000  0.25000000  1
  Co  Co2  1  0.75000000  0.87500000  0.50000000  1
  Co  Co2  1  0.75000000  0.87500000  0.75000000  1
  Co  Co2  1  0.12500000  0.00000000  0.12500000  1
  Co  Co2  1  0.12500000  0.00000000  0.37500000  1
  Co  Co2  1  0.12500000  0.00000000  0.62500000  1
  Co  Co2  1  0.12500000  0.00000000  0.87500000  1
  Co  Co2  1  0.12500000  0.25000000  0.12500000  1
  Co  Co2  1  0.12500000  0.25000000  0.37500000  1
  Co  Co2  1  0.12500000  0.25000000  0.62500000  1
  Co  Co2  1  0.12500000  0.25000000  0.87500000  1
  Co  Co2  1  0.12500000  0.50000000  0.12500000  1
  Co  Co2  1  0.12500000  0.50000000  0.37500000  1
  Co  Co2  1  0.12500000  0.50000000  0.62500000  1
  Co  Co2  1  0.12500000  0.50000000  0.87500000  1
  Co  Co2  1  0.12500000  0.75000000  0.12500000  1
  Co  Co2  1  0.12500000  0.75000000  0.37500000  1
  Co  Co2  1  0.12500000  0.75000000  0.62500000  1
  Co  Co2  1  0.12500000  0.75000000  0.87500000  1
  Co  Co2  1  0.37500000  0.00000000  0.12500000  1
  Co  Co2  1  0.37500000  0.00000000  0.37500000  1
  Co  Co2  1  0.37500000  0.00000000  0.62500000  1
  Co  Co2  1  0.37500000  0.00000000  0.87500000  1
  Co  Co2  1  0.37500000  0.25000000  0.12500000  1
  Co  Co2  1  0.37500000  0.25000000  0.37500000  1
  Co  Co2  1  0.37500000  0.25000000  0.62500000  1
  Co  Co2  1  0.37500000  0.25000000  0.87500000  1
  Co  Co2  1  0.37500000  0.50000000  0.12500000  1
  Co  Co2  1  0.37500000  0.50000000  0.37500000  1
  Co  Co2  1  0.37500000  0.50000000  0.62500000  1
  Co  Co2  1  0.37500000  0.50000000  0.87500000  1
  Co  Co2  1  0.37500000  0.75000000  0.12500000  1
  Co  Co2  1  0.37500000  0.75000000  0.37500000  1
  Co  Co2  1  0.37500000  0.75000000  0.62500000  1
  Co  Co2  1  0.37500000  0.75000000  0.87500000  1
  Co  Co2  1  0.62500000  0.00000000  0.12500000  1
  Co  Co2  1  0.62500000  0.00000000  0.37500000  1
  Co  Co2  1  0.62500000  0.00000000  0.62500000  1
  Co  Co2  1  0.62500000  0.00000000  0.87500000  1
  Co  Co2  1  0.62500000  0.25000000  0.12500000  1
  Co  Co2  1  0.62500000  0.25000000  0.37500000  1
  Co  Co2  1  0.62500000  0.25000000  0.62500000  1
  Co  Co2  1  0.62500000  0.25000000  0.87500000  1
  Co  Co2  1  0.62500000  0.50000000  0.12500000  1
  Co  Co2  1  0.62500000  0.50000000  0.37500000  1
  Co  Co2  1  0.62500000  0.50000000  0.62500000  1
  Co  Co2  1  0.62500000  0.50000000  0.87500000  1
  Co  Co2  1  0.62500000  0.75000000  0.12500000  1
  Co  Co2  1  0.62500000  0.75000000  0.37500000  1
  Co  Co2  1  0.62500000  0.75000000  0.62500000  1
  Co  Co2  1  0.62500000  0.75000000  0.87500000  1
  Co  Co2  1  0.87500000  0.00000000  0.12500000  1
  Co  Co2  1  0.87500000  0.00000000  0.37500000  1
  Co  Co2  1  0.87500000  0.00000000  0.62500000  1
  Co  Co2  1  0.87500000  0.00000000  0.87500000  1
  Co  Co2  1  0.87500000  0.25000000  0.12500000  1
  Co  Co2  1  0.87500000  0.25000000  0.37500000  1
  Co  Co2  1  0.87500000  0.25000000  0.62500000  1
  Co  Co2  1  0.87500000  0.25000000  0.87500000  1
  Co  Co2  1  0.87500000  0.50000000  0.12500000  1
  Co  Co2  1  0.87500000  0.50000000  0.37500000  1
  Co  Co2  1  0.87500000  0.50000000  0.62500000  1
  Co  Co2  1  0.87500000  0.50000000  0.87500000  1
  Co  Co2  1  0.87500000  0.75000000  0.12500000  1
  Co  Co2  1  0.87500000  0.75000000  0.37500000  1
  Co  Co2  1  0.87500000  0.75000000  0.62500000  1
  Co  Co2  1  0.87500000  0.75000000  0.87500000  1
  Co  Co2  1  0.12500000  0.12500000  0.00000000  1
  Co  Co2  1  0.12500000  0.12500000  0.25000000  1
  Co  Co2  1  0.12500000  0.12500000  0.50000000  1
  Co  Co2  1  0.12500000  0.12500000  0.75000000  1
  Co  Co2  1  0.12500000  0.37500000  0.00000000  1
  Co  Co2  1  0.12500000  0.37500000  0.25000000  1
  Co  Co2  1  0.12500000  0.37500000  0.50000000  1
  Co  Co2  1  0.12500000  0.37500000  0.75000000  1
  Co  Co2  1  0.12500000  0.62500000  0.00000000  1
  Co  Co2  1  0.12500000  0.62500000  0.25000000  1
  Co  Co2  1  0.12500000  0.62500000  0.50000000  1
  Co  Co2  1  0.12500000  0.62500000  0.75000000  1
  Co  Co2  1  0.12500000  0.87500000  0.00000000  1
  Co  Co2  1  0.12500000  0.87500000  0.25000000  1
  Co  Co2  1  0.12500000  0.87500000  0.50000000  1
  Co  Co2  1  0.12500000  0.87500000  0.75000000  1
  Co  Co2  1  0.37500000  0.12500000  0.00000000  1
  Co  Co2  1  0.37500000  0.12500000  0.25000000  1
  Co  Co2  1  0.37500000  0.12500000  0.50000000  1
  Co  Co2  1  0.37500000  0.12500000  0.75000000  1
  Co  Co2  1  0.37500000  0.37500000  0.00000000  1
  Co  Co2  1  0.37500000  0.37500000  0.25000000  1
  Co  Co2  1  0.37500000  0.37500000  0.50000000  1
  Co  Co2  1  0.37500000  0.37500000  0.75000000  1
  Co  Co2  1  0.37500000  0.62500000  0.00000000  1
  Co  Co2  1  0.37500000  0.62500000  0.25000000  1
  Co  Co2  1  0.37500000  0.62500000  0.50000000  1
  Co  Co2  1  0.37500000  0.62500000  0.75000000  1
  Co  Co2  1  0.37500000  0.87500000  0.00000000  1
  Co  Co2  1  0.37500000  0.87500000  0.25000000  1
  Co  Co2  1  0.37500000  0.87500000  0.50000000  1
  Co  Co2  1  0.37500000  0.87500000  0.75000000  1
  Co  Co2  1  0.62500000  0.12500000  0.00000000  1
  Co  Co2  1  0.62500000  0.12500000  0.25000000  1
  Co  Co2  1  0.62500000  0.12500000  0.50000000  1
  Co  Co2  1  0.62500000  0.12500000  0.75000000  1
  Co  Co2  1  0.62500000  0.37500000  0.00000000  1
  Co  Co2  1  0.62500000  0.37500000  0.25000000  1
  Co  Co2  1  0.62500000  0.37500000  0.50000000  1
  Co  Co2  1  0.62500000  0.37500000  0.75000000  1
  Co  Co2  1  0.62500000  0.62500000  0.00000000  1
  Co  Co2  1  0.62500000  0.62500000  0.25000000  1
  Co  Co2  1  0.62500000  0.62500000  0.50000000  1
  Co  Co2  1  0.62500000  0.62500000  0.75000000  1
  Co  Co2  1  0.62500000  0.87500000  0.00000000  1
  Co  Co2  1  0.62500000  0.87500000  0.25000000  1
  Co  Co2  1  0.62500000  0.87500000  0.50000000  1
  Co  Co2  1  0.62500000  0.87500000  0.75000000  1
  Co  Co2  1  0.87500000  0.12500000  0.00000000  1
  Co  Co2  1  0.87500000  0.12500000  0.25000000  1
  Co  Co2  1  0.87500000  0.12500000  0.50000000  1
  Co  Co2  1  0.87500000  0.12500000  0.75000000  1
  Co  Co2  1  0.87500000  0.37500000  0.00000000  1
  Co  Co2  1  0.87500000  0.37500000  0.25000000  1
  Co  Co2  1  0.87500000  0.37500000  0.50000000  1
  Co  Co2  1  0.87500000  0.37500000  0.75000000  1
  Co  Co2  1  0.87500000  0.62500000  0.00000000  1
  Co  Co2  1  0.87500000  0.62500000  0.25000000  1
  Co  Co2  1  0.87500000  0.62500000  0.50000000  1
  Co  Co2  1  0.87500000  0.62500000  0.75000000  1
  Co  Co2  1  0.87500000  0.87500000  0.00000000  1
  Co  Co2  1  0.87500000  0.87500000  0.25000000  1
  Co  Co2  1  0.87500000  0.87500000  0.50000000  1
  Co  Co2  1  0.87500000  0.87500000  0.75000000  1
  Co  Co2  1  0.00000000  0.12500000  0.12500000  1
  Co  Co2  1  0.00000000  0.12500000  0.37500000  1
  Co  Co2  1  0.00000000  0.12500000  0.62500000  1
  Co  Co2  1  0.00000000  0.12500000  0.87500000  1
  Co  Co2  1  0.00000000  0.37500000  0.12500000  1
  Co  Co2  1  0.00000000  0.37500000  0.37500000  1
  Co  Co2  1  0.00000000  0.37500000  0.62500000  1
  Co  Co2  1  0.00000000  0.37500000  0.87500000  1
  Co  Co2  1  0.00000000  0.62500000  0.12500000  1
  Co  Co2  1  0.00000000  0.62500000  0.37500000  1
  Co  Co2  1  0.00000000  0.62500000  0.62500000  1
  Co  Co2  1  0.00000000  0.62500000  0.87500000  1
  Co  Co2  1  0.00000000  0.87500000  0.12500000  1
  Co  Co2  1  0.00000000  0.87500000  0.37500000  1
  Co  Co2  1  0.00000000  0.87500000  0.62500000  1
  Co  Co2  1  0.00000000  0.87500000  0.87500000  1
  Co  Co2  1  0.25000000  0.12500000  0.12500000  1
  Co  Co2  1  0.25000000  0.12500000  0.37500000  1
  Co  Co2  1  0.25000000  0.12500000  0.62500000  1
  Co  Co2  1  0.25000000  0.12500000  0.87500000  1
  Co  Co2  1  0.25000000  0.37500000  0.12500000  1
  Co  Co2  1  0.25000000  0.37500000  0.37500000  1
  Co  Co2  1  0.25000000  0.37500000  0.62500000  1
  Co  Co2  1  0.25000000  0.37500000  0.87500000  1
  Co  Co2  1  0.25000000  0.62500000  0.12500000  1
  Co  Co2  1  0.25000000  0.62500000  0.37500000  1
  Co  Co2  1  0.25000000  0.62500000  0.62500000  1
  Co  Co2  1  0.25000000  0.62500000  0.87500000  1
  Co  Co2  1  0.25000000  0.87500000  0.12500000  1
  Co  Co2  1  0.25000000  0.87500000  0.37500000  1
  Co  Co2  1  0.25000000  0.87500000  0.62500000  1
  Co  Co2  1  0.25000000  0.87500000  0.87500000  1
  Co  Co2  1  0.50000000  0.12500000  0.12500000  1
  Co  Co2  1  0.50000000  0.12500000  0.37500000  1
  Co  Co2  1  0.50000000  0.12500000  0.62500000  1
  Co  Co2  1  0.50000000  0.12500000  0.87500000  1
  Co  Co2  1  0.50000000  0.37500000  0.12500000  1
  Co  Co2  1  0.50000000  0.37500000  0.37500000  1
  Co  Co2  1  0.50000000  0.37500000  0.62500000  1
  Co  Co2  1  0.50000000  0.37500000  0.87500000  1
  Co  Co2  1  0.50000000  0.62500000  0.12500000  1
  Co  Co2  1  0.50000000  0.62500000  0.37500000  1
  Co  Co2  1  0.50000000  0.62500000  0.62500000  1
  Co  Co2  1  0.50000000  0.62500000  0.87500000  1
  Co  Co2  1  0.50000000  0.87500000  0.12500000  1
  Co  Co2  1  0.50000000  0.87500000  0.37500000  1
  Co  Co2  1  0.50000000  0.87500000  0.62500000  1
  Co  Co2  1  0.50000000  0.87500000  0.87500000  1
  Co  Co2  1  0.75000000  0.12500000  0.12500000  1
  Co  Co2  1  0.75000000  0.12500000  0.37500000  1
  Co  Co2  1  0.75000000  0.12500000  0.62500000  1
  Co  Co2  1  0.75000000  0.12500000  0.87500000  1
  Co  Co2  1  0.75000000  0.37500000  0.12500000  1
  Co  Co2  1  0.75000000  0.37500000  0.37500000  1
  Co  Co2  1  0.75000000  0.37500000  0.62500000  1
  Co  Co2  1  0.75000000  0.37500000  0.87500000  1
  Co  Co2  1  0.75000000  0.62500000  0.12500000  1
  Co  Co2  1  0.75000000  0.62500000  0.37500000  1
  Co  Co2  1  0.75000000  0.62500000  0.62500000  1
  Co  Co2  1  0.75000000  0.62500000  0.87500000  1
  Co  Co2  1  0.75000000  0.87500000  0.12500000  1
  Co  Co2  1  0.75000000  0.87500000  0.37500000  1
  Co  Co2  1  0.75000000  0.87500000  0.62500000  1
  Co  Co2  1  0.75000000  0.87500000  0.87500000  1
