# generated using pymatgen
data_TaCo2
_symmetry_space_group_name_H-M   'P 1'
_cell_length_a   20.34000000
_cell_length_b   20.34000000
_cell_length_c   20.34000000
_cell_angle_alpha   90.00000000
_cell_angle_beta   90.00000000
_cell_angle_gamma   90.00000000
_symmetry_Int_Tables_number   1
_chemical_formula_structural   TaCo2
_chemical_formula_sum   'Ta216 Co432'
_cell_volume   8414.97530400
_cell_formula_units_Z   216
loop_
 _symmetry_equiv_pos_site_id
 _symmetry_equiv_pos_as_xyz
  1  'x, y, z'
loop_
 _atom_site_type_symbol
 _atom_site_label
 _atom_site_symmetry_multiplicity
 _atom_site_fract_x
 _atom_site_fract_y
 _atom_site_fract_z
 _atom_site_occupancy
  Ta  Ta1  1  0.12500000  0.12500000  0.12500000  1
  Ta  Ta1  1  0.12500000  0.12500000  0.45833333  1
  Ta  Ta1  1  0.12500000  0.12500000  0.79166667  1
  Ta  Ta1  1  0.12500000  0.45833333  0.12500000  1
  Ta  Ta1  1  0.12500000  0.45833333  0.45833333  1
  Ta  Ta1  1  0.12500000  0.45833333  0.79166667  1
  Ta  Ta1  1  0.12500000  0.79166667  0.12500000  1
  Ta  Ta1  1  0.12500000  0.79166667  0.45833333  1
  Ta  Ta1  1  0.12500000  0.79166667  0.79166667  1
  Ta  Ta1  1  0.45833333  0.12500000  0.12500000  1
  Ta  Ta1  1  0.45833333  0.12500000  0.45833333  1
  Ta  Ta1  1  0.45833333  0.12500000  0.79166667  1
  Ta  Ta1  1  0.45833333  0.45833333  0.12500000  1
  Ta  Ta1  1  0.45833333  0.45833333  0.45833333  1
  Ta  Ta1  1  0.45833333  0.45833333  0.79166667  1
  Ta  Ta1  1  0.45833333  0.79166667  0.12500000  1
  Ta  Ta1  1  0.45833333  0.79166667  0.45833333  1
  Ta  Ta1  1  0.45833333  0.79166667  0.79166667  1
  Ta  Ta1  1  0.79166667  0.12500000  0.12500000  1
  Ta  Ta1  1  0.79166667  0.12500000  0.45833333  1
  Ta  Ta1  1  0.79166667  0.12500000  0.79166667  1
  Ta  Ta1  1  0.79166667  0.45833333  0.12500000  1
  Ta  Ta1  1  0.79166667  0.45833333  0.45833333  1
  Ta  Ta1  1  0.79166667  0.45833333  0.79166667  1
  Ta  Ta1  1  0.79166667  0.79166667  0.12500000  1
  Ta  Ta1  1  0.79166667  0.79166667  0.45833333  1
  Ta  Ta1  1  0.79166667  0.79166667  0.79166667  1
  Ta  Ta1  1  0.20833333  0.20833333  0.20833333  1
  Ta  Ta1  1  0.20833333  0.20833333  0.54166667  1
  Ta  Ta1  1  0.20833333  0.20833333  0.87500000  1
  Ta  Ta1  1  0.20833333  0.54166667  0.20833333  1
  Ta  Ta1  1  0.20833333  0.54166667  0.54166667  1
  Ta  Ta1  1  0.20833333  0.54166667  0.87500000  1
  Ta  Ta1  1  0.20833333  0.87500000  0.20833333  1
  Ta  Ta1  1  0.20833333  0.87500000  0.54166667  1
  Ta  Ta1  1  0.20833333  0.87500000  0.87500000  1
  Ta  Ta1  1  0.54166667  0.20833333  0.20833333  1
  Ta  Ta1  1  0.54166667  0.20833333  0.54166667  1
  Ta  Ta1  1  0.54166667  0.20833333  0.87500000  1
  Ta  Ta1  1  0.54166667  0.54166667  0.20833333  1
  Ta  Ta1  1  0.54166667  0.54166667  0.54166667  1
  Ta  Ta1  1  0.54166667  0.54166667  0.87500000  1
  Ta  Ta1  1  0.54166667  0.87500000  0.20833333  1
  Ta  Ta1  1  0.54166667  0.87500000  0.54166667  1
  Ta  Ta1  1  0.54166667  0.87500000  0.87500000  1
  Ta  Ta1  1  0.87500000  0.20833333  0.20833333  1
  Ta  Ta1  1  0.87500000  0.20833333  0.54166667  1
  Ta  Ta1  1  0.87500000  0.20833333  0.87500000  1
  Ta  Ta1  1  0.87500000  0.54166667  0.20833333  1
  Ta  Ta1  1  0.87500000  0.54166667  0.54166667  1
  Ta  Ta1  1  0.87500000  0.54166667  0.87500000  1
  Ta  Ta1  1  0.87500000  0.87500000  0.20833333  1
  Ta  Ta1  1  0.87500000  0.87500000  0.54166667  1
  Ta  Ta1  1  0.87500000  0.87500000  0.87500000  1
  Ta  Ta1  1  0.12500000  0.29166667  0.29166667  1
  Ta  Ta1  1  0.12500000  0.29166667  0.62500000  1
  Ta  Ta1  1  0.12500000  0.29166667  0.95833333  1
  Ta  Ta1  1  0.12500000  0.62500000  0.29166667  1
  Ta  Ta1  1  0.12500000  0.62500000  0.62500000  1
  Ta  Ta1  1  0.12500000  0.62500000  0.95833333  1
  Ta  Ta1  1  0.12500000  0.95833333  0.29166667  1
  Ta  Ta1  1  0.12500000  0.95833333  0.62500000  1
  Ta  Ta1  1  0.12500000  0.95833333  0.95833333  1
  Ta  Ta1  1  0.45833333  0.29166667  0.29166667  1
  Ta  Ta1  1  0.45833333  0.29166667  0.62500000  1
  Ta  Ta1  1  0.45833333  0.29166667  0.95833333  1
  Ta  Ta1  1  0.45833333  0.62500000  0.29166667  1
  Ta  Ta1  1  0.45833333  0.62500000  0.62500000  1
  Ta  Ta1  1  0.45833333  0.62500000  0.95833333  1
  Ta  Ta1  1  0.45833333  0.95833333  0.29166667  1
  Ta  Ta1  1  0.45833333  0.95833333  0.62500000  1
  Ta  Ta1  1  0.45833333  0.95833333  0.95833333  1
  Ta  Ta1  1  0.79166667  0.29166667  0.29166667  1
  Ta  Ta1  1  0.79166667  0.29166667  0.62500000  1
  Ta  Ta1  1  0.79166667  0.29166667  0.95833333  1
  Ta  Ta1  1  0.79166667  0.62500000  0.29166667  1
  Ta  Ta1  1  0.79166667  0.62500000  0.62500000  1
  Ta  Ta1  1  0.79166667  0.62500000  0.95833333  1
  Ta  Ta1  1  0.79166667  0.95833333  0.29166667  1
  Ta  Ta1  1  0.79166667  0.95833333  0.62500000  1
  Ta  Ta1  1  0.79166667  0.95833333  0.95833333  1
  Ta  Ta1  1  0.04166667  0.20833333  0.04166667  1
  Ta  Ta1  1  0.04166667  0.20833333  0.37500000  1
  Ta  Ta1  1  0.04166667  0.20833333  0.70833333  1
  Ta  Ta1  1  0.04166667  0.54166667  0.04166667  1
  Ta  Ta1  1  0.04166667  0.54166667  0.37500000  1
  Ta  Ta1  1  0.04166667  0.54166667  0.70833333  1
  Ta  Ta1  1  0.04166667  0.87500000  0.04166667  1
  Ta  Ta1  1  0.04166667  0.87500000  0.37500000  1
  Ta  Ta1  1  0.04166667  0.87500000  0.70833333  1
  Ta  Ta1  1  0.37500000  0.20833333  0.04166667  1
  Ta  Ta1  1  0.37500000  0.20833333  0.37500000  1
  Ta  Ta1  1  0.37500000  0.20833333  0.70833333  1
  Ta  Ta1  1  0.37500000  0.54166667  0.04166667  1
  Ta  Ta1  1  0.37500000  0.54166667  0.37500000  1
  Ta  Ta1  1  0.37500000  0.54166667  0.70833333  1
  Ta  Ta1  1  0.37500000  0.87500000  0.04166667  1
  Ta  Ta1  1  0.37500000  0.87500000  0.37500000  1
  Ta  Ta1  1  0.37500000  0.87500000  0.70833333  1
  Ta  Ta1  1  0.70833333  0.20833333  0.04166667  1
  Ta  Ta1  1  0.70833333  0.20833333  0.37500000  1
  Ta  Ta1  1  0.70833333  0.20833333  0.70833333  1
  Ta  Ta1  1  0.70833333  0.54166667  0.04166667  1
  Ta  Ta1  1  0.70833333  0.54166667  0.37500000  1
  Ta  Ta1  1  0.70833333  0.54166667  0.70833333  1
  Ta  Ta1  1  0.70833333  0.87500000  0.04166667  1
  Ta  Ta1  1  0.70833333  0.87500000  0.37500000  1
  Ta  Ta1  1  0.70833333  0.87500000  0.70833333  1
  Ta  Ta1  1  0.29166667  0.12500000  0.29166667  1
  Ta  Ta1  1  0.29166667  0.12500000  0.62500000  1
  Ta  Ta1  1  0.29166667  0.12500000  0.95833333  1
  Ta  Ta1  1  0.29166667  0.45833333  0.29166667  1
  Ta  Ta1  1  0.29166667  0.45833333  0.62500000  1
  Ta  Ta1  1  0.29166667  0.45833333  0.95833333  1
  Ta  Ta1  1  0.29166667  0.79166667  0.29166667  1
  Ta  Ta1  1  0.29166667  0.79166667  0.62500000  1
  Ta  Ta1  1  0.29166667  0.79166667  0.95833333  1
  Ta  Ta1  1  0.62500000  0.12500000  0.29166667  1
  Ta  Ta1  1  0.62500000  0.12500000  0.62500000  1
  Ta  Ta1  1  0.62500000  0.12500000  0.95833333  1
  Ta  Ta1  1  0.62500000  0.45833333  0.29166667  1
  Ta  Ta1  1  0.62500000  0.45833333  0.62500000  1
  Ta  Ta1  1  0.62500000  0.45833333  0.95833333  1
  Ta  Ta1  1  0.62500000  0.79166667  0.29166667  1
  Ta  Ta1  1  0.62500000  0.79166667  0.62500000  1
  Ta  Ta1  1  0.62500000  0.79166667  0.95833333  1
  Ta  Ta1  1  0.95833333  0.12500000  0.29166667  1
  Ta  Ta1  1  0.95833333  0.12500000  0.62500000  1
  Ta  Ta1  1  0.95833333  0.12500000  0.95833333  1
  Ta  Ta1  1  0.95833333  0.45833333  0.29166667  1
  Ta  Ta1  1  0.95833333  0.45833333  0.62500000  1
  Ta  Ta1  1  0.95833333  0.45833333  0.95833333  1
  Ta  Ta1  1  0.95833333  0.79166667  0.29166667  1
  Ta  Ta1  1  0.95833333  0.79166667  0.62500000  1
  Ta  Ta1  1  0.95833333  0.79166667  0.95833333  1
  Ta  Ta1  1  0.20833333  0.04166667  0.04166667  1
  Ta  Ta1  1  0.20833333  0.04166667  0.37500000  1
  Ta  Ta1  1  0.20833333  0.04166667  0.70833333  1
  Ta  Ta1  1  0.20833333  0.37500000  0.04166667  1
  Ta  Ta1  1  0.20833333  0.37500000  0.37500000  1
  Ta  Ta1  1  0.20833333  0.37500000  0.70833333  1
  Ta  Ta1  1  0.20833333  0.70833333  0.04166667  1
  Ta  Ta1  1  0.20833333  0.70833333  0.37500000  1
  Ta  Ta1  1  0.20833333  0.70833333  0.70833333  1
  Ta  Ta1  1  0.54166667  0.04166667  0.04166667  1
  Ta  Ta1  1  0.54166667  0.04166667  0.37500000  1
  Ta  Ta1  1  0.54166667  0.04166667  0.70833333  1
  Ta  Ta1  1  0.54166667  0.37500000  0.04166667  1
  Ta  Ta1  1  0.54166667  0.37500000  0.37500000  1
  Ta  Ta1  1  0.54166667  0.37500000  0.70833333  1
  Ta  Ta1  1  0.54166667  0.70833333  0.04166667  1
  Ta  Ta1  1  0.54166667  0.70833333  0.37500000  1
  Ta  Ta1  1  0.54166667  0.70833333  0.70833333  1
  Ta  Ta1  1  0.87500000  0.04166667  0.04166667  1
  Ta  Ta1  1  0.87500000  0.04166667  0.37500000  1
  Ta  Ta1  1  0.87500000  0.04166667  0.70833333  1
  Ta  Ta1  1  0.87500000  0.37500000  0.04166667  1
  Ta  Ta1  1  0.87500000  0.37500000  0.37500000  1
  Ta  Ta1  1  0.87500000  0.37500000  0.70833333  1
  Ta  Ta1  1  0.87500000  0.70833333  0.04166667  1
  Ta  Ta1  1  0.87500000  0.70833333  0.37500000  1
  Ta  Ta1  1  0.87500000  0.70833333  0.70833333  1
  Ta  Ta1  1  0.29166667  0.29166667  0.12500000  1
  Ta  Ta1  1  0.29166667  0.29166667  0.45833333  1
  Ta  Ta1  1  0.29166667  0.29166667  0.79166667  1
  Ta  Ta1  1  0.29166667  0.62500000  0.12500000  1
  Ta  Ta1  1  0.29166667  0.62500000  0.45833333  1
  Ta  Ta1  1  0.29166667  0.62500000  0.79166667  1
  Ta  Ta1  1  0.29166667  0.95833333  0.12500000  1
  Ta  Ta1  1  0.29166667  0.95833333  0.45833333  1
  Ta  Ta1  1  0.29166667  0.95833333  0.79166667  1
  Ta  Ta1  1  0.62500000  0.29166667  0.12500000  1
  Ta  Ta1  1  0.62500000  0.29166667  0.45833333  1
  Ta  Ta1  1  0.62500000  0.29166667  0.79166667  1
  Ta  Ta1  1  0.62500000  0.62500000  0.12500000  1
  Ta  Ta1  1  0.62500000  0.62500000  0.45833333  1
  Ta  Ta1  1  0.62500000  0.62500000  0.79166667  1
  Ta  Ta1  1  0.62500000  0.95833333  0.12500000  1
  Ta  Ta1  1  0.62500000  0.95833333  0.45833333  1
  Ta  Ta1  1  0.62500000  0.95833333  0.79166667  1
  Ta  Ta1  1  0.95833333  0.29166667  0.12500000  1
  Ta  Ta1  1  0.95833333  0.29166667  0.45833333  1
  Ta  Ta1  1  0.95833333  0.29166667  0.79166667  1
  Ta  Ta1  1  0.95833333  0.62500000  0.12500000  1
  Ta  Ta1  1  0.95833333  0.62500000  0.45833333  1
  Ta  Ta1  1  0.95833333  0.62500000  0.79166667  1
  Ta  Ta1  1  0.95833333  0.95833333  0.12500000  1
  Ta  Ta1  1  0.95833333  0.95833333  0.45833333  1
  Ta  Ta1  1  0.95833333  0.95833333  0.79166667  1
  Ta  Ta1  1  0.04166667  0.04166667  0.20833333  1
  Ta  Ta1  1  0.04166667  0.04166667  0.54166667  1
  Ta  Ta1  1  0.04166667  0.04166667  0.87500000  1
  Ta  Ta1  1  0.04166667  0.37500000  0.20833333  1
  Ta  Ta1  1  0.04166667  0.37500000  0.54166667  1
  Ta  Ta1  1  0.04166667  0.37500000  0.87500000  1
  Ta  Ta1  1  0.04166667  0.70833333  0.20833333  1
  Ta  Ta1  1  0.04166667  0.70833333  0.54166667  1
  Ta  Ta1  1  0.04166667  0.70833333  0.87500000  1
  Ta  Ta1  1  0.37500000  0.04166667  0.20833333  1
  Ta  Ta1  1  0.37500000  0.04166667  0.54166667  1
  Ta  Ta1  1  0.37500000  0.04166667  0.87500000  1
  Ta  Ta1  1  0.37500000  0.37500000  0.20833333  1
  Ta  Ta1  1  0.37500000  0.37500000  0.54166667  1
  Ta  Ta1  1  0.37500000  0.37500000  0.87500000  1
  Ta  Ta1  1  0.37500000  0.70833333  0.20833333  1
  Ta  Ta1  1  0.37500000  0.70833333  0.54166667  1
  Ta  Ta1  1  0.37500000  0.70833333  0.87500000  1
  Ta  Ta1  1  0.70833333  0.04166667  0.20833333  1
  Ta  Ta1  1  0.70833333  0.04166667  0.54166667  1
  Ta  Ta1  1  0.70833333  0.04166667  0.87500000  1
  Ta  Ta1  1  0.70833333  0.37500000  0.20833333  1
  Ta  Ta1  1  0.70833333  0.37500000  0.54166667  1
  Ta  Ta1  1  0.70833333  0.37500000  0.87500000  1
  Ta  Ta1  1  0.70833333  0.70833333  0.20833333  1
  Ta  Ta1  1  0.70833333  0.70833333  0.54166667  1
  Ta  Ta1  1  0.70833333  0.70833333  0.87500000  1
  Co  Co1  1  0.00000000  0.00000000  0.00000000  1
  Co  Co1  1  0.00000000  0.00000000  0.33333333  1
  Co  Co1  1  0.00000000  0.00000000  0.66666667  1
  Co  Co1  1  0.00000000  0.33333333  0.00000000  1
  Co  Co1  1  0.00000000  0.33333333  0.33333333  1
  Co  Co1  1  0.00000000  0.33333333  0.66666667  1
  Co  Co1  1  0.00000000  0.66666667  0.00000000  1
  Co  Co1  1  0.00000000  0.66666667  0.33333333  1
  Co  Co1  1  0.00000000  0.66666667  0.66666667  1
  Co  Co1  1  0.33333333  0.00000000  0.00000000  1
  Co  Co1  1  0.33333333  0.00000000  0.33333333  1
  Co  Co1  1  0.33333333  0.00000000  0.66666667  1
  Co  Co1  1  0.33333333  0.33333333  0.00000000  1
  Co  Co1  1  0.33333333  0.33333333  0.33333333  1
  Co  Co1  1  0.33333333  0.33333333  0.66666667  1
  Co  Co1  1  0.33333333  0.66666667  0.00000000  1
  Co  Co1  1  0.33333333  0.66666667  0.33333333  1
  Co  Co1  1  0.33333333  0.66666667  0.66666667  1
  Co  Co1  1  0.66666667  0.00000000  0.00000000  1
  Co  Co1  1  0.66666667  0.00000000  0.33333333  1
  Co  Co1  1  0.66666667  0.00000000  0.66666667  1
  Co  Co1  1  0.66666667  0.33333333  0.00000000  1
  Co  Co1  1  0.66666667  0.33333333  0.33333333  1
  Co  Co1  1  0.66666667  0.33333333  0.66666667  1
  Co  Co1  1  0.66666667  0.66666667  0.00000000  1
  Co  Co1  1  0.66666667  0.66666667  0.33333333  1
  Co  Co1  1  0.66666667  0.66666667  0.66666667  1
  Co  Co1  1  0.00000000  0.08333333  0.08333333  1
  Co  Co1  1  0.00000000  0.08333333  0.41666667  1
  Co  Co1  1  0.00000000  0.08333333  0.75000000  1
  Co  Co1  1  0.00000000  0.41666667  0.08333333  1
  Co  Co1  1  0.00000000  0.41666667  0.41666667  1
  Co  Co1  1  0.00000000  0.41666667  0.75000000  1
  Co  Co1  1  0.00000000  0.75000000  0.08333333  1
  Co  Co1  1  0.00000000  0.75000000  0.41666667  1
  Co  Co1  1  0.00000000  0.75000000  0.75000000  1
  Co  Co1  1  0.33333333  0.08333333  0.08333333  1
  Co  Co1  1  0.33333333  0.08333333  0.41666667  1
  Co  Co1  1  0.33333333  0.08333333  0.75000000  1
  Co  Co1  1  0.33333333  0.41666667  0.08333333  1
  Co  Co1  1  0.33333333  0.41666667  0.41666667  1
  Co  Co1  1  0.33333333  0.41666667  0.75000000  1
  Co  Co1  1  0.33333333  0.75000000  0.08333333  1
  Co  Co1  1  0.33333333  0.75000000  0.41666667  1
  Co  Co1  1  0.33333333  0.75000000  0.75000000  1
  Co  Co1  1  0.66666667  0.08333333  0.08333333  1
  Co  Co1  1  0.66666667  0.08333333  0.41666667  1
  Co  Co1  1  0.66666667  0.08333333  0.75000000  1
  Co  Co1  1  0.66666667  0.41666667  0.08333333  1
  Co  Co1  1  0.66666667  0.41666667  0.41666667  1
  Co  Co1  1  0.66666667  0.41666667  0.75000000  1
  Co  Co1  1  0.66666667  0.75000000  0.08333333  1
  Co  Co1  1  0.66666667  0.75000000  0.41666667  1
  Co  Co1  1  0.66666667  0.75000000  0.75000000  1
  Co  Co1  1  0.25000000  0.08333333  0.16666667  1
  Co  Co1  1  0.25000000  0.08333333  0.50000000  1
  Co  Co1  1  0.25000000  0.08333333  0.83333333  1
  Co  Co1  1  0.25000000  0.41666667  0.16666667  1
  Co  Co1  1  0.25000000  0.41666667  0.50000000  1
  Co  Co1  1  0.25000000  0.41666667  0.83333333  1
  Co  Co1  1  0.25000000  0.75000000  0.16666667  1
  Co  Co1  1  0.25000000  0.75000000  0.50000000  1
  Co  Co1  1  0.25000000  0.75000000  0.83333333  1
  Co  Co1  1  0.58333333  0.08333333  0.16666667  1
  Co  Co1  1  0.58333333  0.08333333  0.50000000  1
  Co  Co1  1  0.58333333  0.08333333  0.83333333  1
  Co  Co1  1  0.58333333  0.41666667  0.16666667  1
  Co  Co1  1  0.58333333  0.41666667  0.50000000  1
  Co  Co1  1  0.58333333  0.41666667  0.83333333  1
  Co  Co1  1  0.58333333  0.75000000  0.16666667  1
  Co  Co1  1  0.58333333  0.75000000  0.50000000  1
  Co  Co1  1  0.58333333  0.75000000  0.83333333  1
  Co  Co1  1  0.91666667  0.08333333  0.16666667  1
  Co  Co1  1  0.91666667  0.08333333  0.50000000  1
  Co  Co1  1  0.91666667  0.08333333  0.83333333  1
  Co  Co1  1  0.91666667  0.41666667  0.16666667  1
  Co  Co1  1  0.91666667  0.41666667  0.50000000  1
  Co  Co1  1  0.91666667  0.41666667  0.83333333  1
  Co  Co1  1  0.91666667  0.75000000  0.16666667  1
  Co  Co1  1  0.91666667  0.75000000  0.50000000  1
  Co  Co1  1  0.91666667  0.75000000  0.83333333  1
  Co  Co1  1  0.25000000  0.00000000  0.25000000  1
  Co  Co1  1  0.25000000  0.00000000  0.58333333  1
  Co  Co1  1  0.25000000  0.00000000  0.91666667  1
  Co  Co1  1  0.25000000  0.33333333  0.25000000  1
  Co  Co1  1  0.25000000  0.33333333  0.58333333  1
  Co  Co1  1  0.25000000  0.33333333  0.91666667  1
  Co  Co1  1  0.25000000  0.66666667  0.25000000  1
  Co  Co1  1  0.25000000  0.66666667  0.58333333  1
  Co  Co1  1  0.25000000  0.66666667  0.91666667  1
  Co  Co1  1  0.58333333  0.00000000  0.25000000  1
  Co  Co1  1  0.58333333  0.00000000  0.58333333  1
  Co  Co1  1  0.58333333  0.00000000  0.91666667  1
  Co  Co1  1  0.58333333  0.33333333  0.25000000  1
  Co  Co1  1  0.58333333  0.33333333  0.58333333  1
  Co  Co1  1  0.58333333  0.33333333  0.91666667  1
  Co  Co1  1  0.58333333  0.66666667  0.25000000  1
  Co  Co1  1  0.58333333  0.66666667  0.58333333  1
  Co  Co1  1  0.58333333  0.66666667  0.91666667  1
  Co  Co1  1  0.91666667  0.00000000  0.25000000  1
  Co  Co1  1  0.91666667  0.00000000  0.58333333  1
  Co  Co1  1  0.91666667  0.00000000  0.91666667  1
  Co  Co1  1  0.91666667  0.33333333  0.25000000  1
  Co  Co1  1  0.91666667  0.33333333  0.58333333  1
  Co  Co1  1  0.91666667  0.33333333  0.91666667  1
  Co  Co1  1  0.91666667  0.66666667  0.25000000  1
  Co  Co1  1  0.91666667  0.66666667  0.58333333  1
  Co  Co1  1  0.91666667  0.66666667  0.91666667  1
  Co  Co1  1  0.16666667  0.25000000  0.08333333  1
  Co  Co1  1  0.16666667  0.25000000  0.41666667  1
  Co  Co1  1  0.16666667  0.25000000  0.75000000  1
  Co  Co1  1  0.16666667  0.58333333  0.08333333  1
  Co  Co1  1  0.16666667  0.58333333  0.41666667  1
  Co  Co1  1  0.16666667  0.58333333  0.75000000  1
  Co  Co1  1  0.16666667  0.91666667  0.08333333  1
  Co  Co1  1  0.16666667  0.91666667  0.41666667  1
  Co  Co1  1  0.16666667  0.91666667  0.75000000  1
  Co  Co1  1  0.50000000  0.25000000  0.08333333  1
  Co  Co1  1  0.50000000  0.25000000  0.41666667  1
  Co  Co1  1  0.50000000  0.25000000  0.75000000  1
  Co  Co1  1  0.50000000  0.58333333  0.08333333  1
  Co  Co1  1  0.50000000  0.58333333  0.41666667  1
  Co  Co1  1  0.50000000  0.58333333  0.75000000  1
  Co  Co1  1  0.50000000  0.91666667  0.08333333  1
  Co  Co1  1  0.50000000  0.91666667  0.41666667  1
  Co  Co1  1  0.50000000  0.91666667  0.75000000  1
  Co  Co1  1  0.83333333  0.25000000  0.08333333  1
  Co  Co1  1  0.83333333  0.25000000  0.41666667  1
  Co  Co1  1  0.83333333  0.25000000  0.75000000  1
  Co  Co1  1  0.83333333  0.58333333  0.08333333  1
  Co  Co1  1  0.83333333  0.58333333  0.41666667  1
  Co  Co1  1  0.83333333  0.58333333  0.75000000  1
  Co  Co1  1  0.83333333  0.91666667  0.08333333  1
  Co  Co1  1  0.83333333  0.91666667  0.41666667  1
  Co  Co1  1  0.83333333  0.91666667  0.75000000  1
  Co  Co1  1  0.08333333  0.25000000  0.16666667  1
  Co  Co1  1  0.08333333  0.25000000  0.50000000  1
  Co  Co1  1  0.08333333  0.25000000  0.83333333  1
  Co  Co1  1  0.08333333  0.58333333  0.16666667  1
  Co  Co1  1  0.08333333  0.58333333  0.50000000  1
  Co  Co1  1  0.08333333  0.58333333  0.83333333  1
  Co  Co1  1  0.08333333  0.91666667  0.16666667  1
  Co  Co1  1  0.08333333  0.91666667  0.50000000  1
  Co  Co1  1  0.08333333  0.91666667  0.83333333  1
  Co  Co1  1  0.41666667  0.25000000  0.16666667  1
  Co  Co1  1  0.41666667  0.25000000  0.50000000  1
  Co  Co1  1  0.41666667  0.25000000  0.83333333  1
  Co  Co1  1  0.41666667  0.58333333  0.16666667  1
  Co  Co1  1  0.41666667  0.58333333  0.50000000  1
  Co  Co1  1  0.41666667  0.58333333  0.83333333  1
  Co  Co1  1  0.41666667  0.91666667  0.16666667  1
  Co  Co1  1  0.41666667  0.91666667  0.50000000  1
  Co  Co1  1  0.41666667  0.91666667  0.83333333  1
  Co  Co1  1  0.75000000  0.25000000  0.16666667  1
  Co  Co1  1  0.75000000  0.25000000  0.50000000  1
  Co  Co1  1  0.75000000  0.25000000  0.83333333  1
  Co  Co1  1  0.75000000  0.58333333  0.16666667  1
  Co  Co1  1  0.75000000  0.58333333  0.50000000  1
  Co  Co1  1  0.75000000  0.58333333  0.83333333  1
  Co  Co1  1  0.75000000  0.91666667  0.16666667  1
  Co  Co1  1  0.75000000  0.91666667  0.50000000  1
  Co  Co1  1  0.75000000  0.91666667  0.83333333  1
  Co  Co1  1  0.08333333  0.16666667  0.25000000  1
  Co  Co1  1  0.08333333  0.16666667  0.58333333  1
  Co  Co1  1  0.08333333  0.16666667  0.91666667  1
  Co  Co1  1  0.08333333  0.50000000  0.25000000  1
  Co  Co1  1  0.08333333  0.50000000  0.58333333  1
  Co  Co1  1  0.08333333  0.50000000  0.91666667  1
  Co  Co1  1  0.08333333  0.83333333  0.25000000  1
  Co  Co1  1  0.08333333  0.83333333  0.58333333  1
  Co  Co1  1  0.08333333  0.83333333  0.91666667  1
  Co  Co1  1  0.41666667  0.16666667  0.25000000  1
  Co  Co1  1  0.41666667  0.16666667  0.58333333  1
  Co  Co1  1  0.41666667  0.16666667  0.91666667  1
  Co  Co1  1  0.41666667  0.50000000  0.25000000  1
  Co  Co1  1  0.41666667  0.50000000  0.58333333  1
  Co  Co1  1  0.41666667  0.50000000  0.91666667  1
  Co  Co1  1  0.41666667  0.83333333  0.25000000  1
  Co  Co1  1  0.41666667  0.83333333  0.58333333  1
  Co  Co1  1  0.41666667  0.83333333  0.91666667  1
  Co  Co1  1  0.75000000  0.16666667  0.25000000  1
  Co  Co1  1  0.75000000  0.16666667  0.58333333  1
  Co  Co1  1  0.75000000  0.16666667  0.91666667  1
  Co  Co1  1  0.75000000  0.50000000  0.25000000  1
  Co  Co1  1  0.75000000  0.50000000  0.58333333  1
  Co  Co1  1  0.75000000  0.50000000  0.91666667  1
  Co  Co1  1  0.75000000  0.83333333  0.25000000  1
  Co  Co1  1  0.75000000  0.83333333  0.58333333  1
  Co  Co1  1  0.75000000  0.83333333  0.91666667  1
  Co  Co1  1  0.00000000  0.16666667  0.16666667  1
  Co  Co1  1  0.00000000  0.16666667  0.50000000  1
  Co  Co1  1  0.00000000  0.16666667  0.83333333  1
  Co  Co1  1  0.00000000  0.50000000  0.16666667  1
  Co  Co1  1  0.00000000  0.50000000  0.50000000  1
  Co  Co1  1  0.00000000  0.50000000  0.83333333  1
  Co  Co1  1  0.00000000  0.83333333  0.16666667  1
  Co  Co1  1  0.00000000  0.83333333  0.50000000  1
  Co  Co1  1  0.00000000  0.83333333  0.83333333  1
  Co  Co1  1  0.33333333  0.16666667  0.16666667  1
  Co  Co1  1  0.33333333  0.16666667  0.50000000  1
  Co  Co1  1  0.33333333  0.16666667  0.83333333  1
  Co  Co1  1  0.33333333  0.50000000  0.16666667  1
  Co  Co1  1  0.33333333  0.50000000  0.50000000  1
  Co  Co1  1  0.33333333  0.50000000  0.83333333  1
  Co  Co1  1  0.33333333  0.83333333  0.16666667  1
  Co  Co1  1  0.33333333  0.83333333  0.50000000  1
  Co  Co1  1  0.33333333  0.83333333  0.83333333  1
  Co  Co1  1  0.66666667  0.16666667  0.16666667  1
  Co  Co1  1  0.66666667  0.16666667  0.50000000  1
  Co  Co1  1  0.66666667  0.16666667  0.83333333  1
  Co  Co1  1  0.66666667  0.50000000  0.16666667  1
  Co  Co1  1  0.66666667  0.50000000  0.50000000  1
  Co  Co1  1  0.66666667  0.50000000  0.83333333  1
  Co  Co1  1  0.66666667  0.83333333  0.16666667  1
  Co  Co1  1  0.66666667  0.83333333  0.50000000  1
  Co  Co1  1  0.66666667  0.83333333  0.83333333  1
  Co  Co1  1  0.08333333  0.08333333  0.00000000  1
  Co  Co1  1  0.08333333  0.08333333  0.33333333  1
  Co  Co1  1  0.08333333  0.08333333  0.66666667  1
  Co  Co1  1  0.08333333  0.41666667  0.00000000  1
  Co  Co1  1  0.08333333  0.41666667  0.33333333  1
  Co  Co1  1  0.08333333  0.41666667  0.66666667  1
  Co  Co1  1  0.08333333  0.75000000  0.00000000  1
  Co  Co1  1  0.08333333  0.75000000  0.33333333  1
  Co  Co1  1  0.08333333  0.75000000  0.66666667  1
  Co  Co1  1  0.41666667  0.08333333  0.00000000  1
  Co  Co1  1  0.41666667  0.08333333  0.33333333  1
  Co  Co1  1  0.41666667  0.08333333  0.66666667  1
  Co  Co1  1  0.41666667  0.41666667  0.00000000  1
  Co  Co1  1  0.41666667  0.41666667  0.33333333  1
  Co  Co1  1  0.41666667  0.41666667  0.66666667  1
  Co  Co1  1  0.41666667  0.75000000  0.00000000  1
  Co  Co1  1  0.41666667  0.75000000  0.33333333  1
  Co  Co1  1  0.41666667  0.75000000  0.66666667  1
  Co  Co1  1  0.75000000  0.08333333  0.00000000  1
  Co  Co1  1  0.75000000  0.08333333  0.33333333  1
  Co  Co1  1  0.75000000  0.08333333  0.66666667  1
  Co  Co1  1  0.75000000  0.41666667  0.00000000  1
  Co  Co1  1  0.75000000  0.41666667  0.33333333  1
  Co  Co1  1  0.75000000  0.41666667  0.66666667  1
  Co  Co1  1  0.75000000  0.75000000  0.00000000  1
  Co  Co1  1  0.75000000  0.75000000  0.33333333  1
  Co  Co1  1  0.75000000  0.75000000  0.66666667  1
  Co  Co1  1  0.08333333  0.00000000  0.08333333  1
  Co  Co1  1  0.08333333  0.00000000  0.41666667  1
  Co  Co1  1  0.08333333  0.00000000  0.75000000  1
  Co  Co1  1  0.08333333  0.33333333  0.08333333  1
  Co  Co1  1  0.08333333  0.33333333  0.41666667  1
  Co  Co1  1  0.08333333  0.33333333  0.75000000  1
  Co  Co1  1  0.08333333  0.66666667  0.08333333  1
  Co  Co1  1  0.08333333  0.66666667  0.41666667  1
  Co  Co1  1  0.08333333  0.66666667  0.75000000  1
  Co  Co1  1  0.41666667  0.00000000  0.08333333  1
  Co  Co1  1  0.41666667  0.00000000  0.41666667  1
  Co  Co1  1  0.41666667  0.00000000  0.75000000  1
  Co  Co1  1  0.41666667  0.33333333  0.08333333  1
  Co  Co1  1  0.41666667  0.33333333  0.41666667  1
  Co  Co1  1  0.41666667  0.33333333  0.75000000  1
  Co  Co1  1  0.41666667  0.66666667  0.08333333  1
  Co  Co1  1  0.41666667  0.66666667  0.41666667  1
  Co  Co1  1  0.41666667  0.66666667  0.75000000  1
  Co  Co1  1  0.75000000  0.00000000  0.08333333  1
  Co  Co1  1  0.75000000  0.00000000  0.41666667  1
  Co  Co1  1  0.75000000  0.00000000  0.75000000  1
  Co  Co1  1  0.75000000  0.33333333  0.08333333  1
  Co  Co1  1  0.75000000  0.33333333  0.41666667  1
  Co  Co1  1  0.75000000  0.33333333  0.75000000  1
  Co  Co1  1  0.75000000  0.66666667  0.08333333  1
  Co  Co1  1  0.75000000  0.66666667  0.41666667  1
  Co  Co1  1  0.75000000  0.66666667  0.75000000  1
  Co  Co1  1  0.16666667  0.08333333  0.25000000  1
  Co  Co1  1  0.16666667  0.08333333  0.58333333  1
  Co  Co1  1  0.16666667  0.08333333  0.91666667  1
  Co  Co1  1  0.16666667  0.41666667  0.25000000  1
  Co  Co1  1  0.16666667  0.41666667  0.58333333  1
  Co  Co1  1  0.16666667  0.41666667  0.91666667  1
  Co  Co1  1  0.16666667  0.75000000  0.25000000  1
  Co  Co1  1  0.16666667  0.75000000  0.58333333  1
  Co  Co1  1  0.16666667  0.75000000  0.91666667  1
  Co  Co1  1  0.50000000  0.08333333  0.25000000  1
  Co  Co1  1  0.50000000  0.08333333  0.58333333  1
  Co  Co1  1  0.50000000  0.08333333  0.91666667  1
  Co  Co1  1  0.50000000  0.41666667  0.25000000  1
  Co  Co1  1  0.50000000  0.41666667  0.58333333  1
  Co  Co1  1  0.50000000  0.41666667  0.91666667  1
  Co  Co1  1  0.50000000  0.75000000  0.25000000  1
  Co  Co1  1  0.50000000  0.75000000  0.58333333  1
  Co  Co1  1  0.50000000  0.75000000  0.91666667  1
  Co  Co1  1  0.83333333  0.08333333  0.25000000  1
  Co  Co1  1  0.83333333  0.08333333  0.58333333  1
  Co  Co1  1  0.83333333  0.08333333  0.91666667  1
  Co  Co1  1  0.83333333  0.41666667  0.25000000  1
  Co  Co1  1  0.83333333  0.41666667  0.58333333  1
  Co  Co1  1  0.83333333  0.41666667  0.91666667  1
  Co  Co1  1  0.83333333  0.75000000  0.25000000  1
  Co  Co1  1  0.83333333  0.75000000  0.58333333  1
  Co  Co1  1  0.83333333  0.75000000  0.91666667  1
  Co  Co1  1  0.00000000  0.25000000  0.25000000  1
  Co  Co1  1  0.00000000  0.25000000  0.58333333  1
  Co  Co1  1  0.00000000  0.25000000  0.91666667  1
  Co  Co1  1  0.00000000  0.58333333  0.25000000  1
  Co  Co1  1  0.00000000  0.58333333  0.58333333  1
  Co  Co1  1  0.00000000  0.58333333  0.91666667  1
  Co  Co1  1  0.00000000  0.91666667  0.25000000  1
  Co  Co1  1  0.00000000  0.91666667  0.58333333  1
  Co  Co1  1  0.00000000  0.91666667  0.91666667  1
  Co  Co1  1  0.33333333  0.25000000  0.25000000  1
  Co  Co1  1  0.33333333  0.25000000  0.58333333  1
  Co  Co1  1  0.33333333  0.25000000  0.91666667  1
  Co  Co1  1  0.33333333  0.58333333  0.25000000  1
  Co  Co1  1  0.33333333  0.58333333  0.58333333  1
  Co  Co1  1  0.33333333  0.58333333  0.91666667  1
  Co  Co1  1  0.33333333  0.91666667  0.25000000  1
  Co  Co1  1  0.33333333  0.91666667  0.58333333  1
  Co  Co1  1  0.33333333  0.91666667  0.91666667  1
  Co  Co1  1  0.66666667  0.25000000  0.25000000  1
  Co  Co1  1  0.66666667  0.25000000  0.58333333  1
  Co  Co1  1  0.66666667  0.25000000  0.91666667  1
  Co  Co1  1  0.66666667  0.58333333  0.25000000  1
  Co  Co1  1  0.66666667  0.58333333  0.58333333  1
  Co  Co1  1  0.66666667  0.58333333  0.91666667  1
  Co  Co1  1  0.66666667  0.91666667  0.25000000  1
  Co  Co1  1  0.66666667  0.91666667  0.58333333  1
  Co  Co1  1  0.66666667  0.91666667  0.91666667  1
  Co  Co1  1  0.25000000  0.16666667  0.08333333  1
  Co  Co1  1  0.25000000  0.16666667  0.41666667  1
  Co  Co1  1  0.25000000  0.16666667  0.75000000  1
  Co  Co1  1  0.25000000  0.50000000  0.08333333  1
  Co  Co1  1  0.25000000  0.50000000  0.41666667  1
  Co  Co1  1  0.25000000  0.50000000  0.75000000  1
  Co  Co1  1  0.25000000  0.83333333  0.08333333  1
  Co  Co1  1  0.25000000  0.83333333  0.41666667  1
  Co  Co1  1  0.25000000  0.83333333  0.75000000  1
  Co  Co1  1  0.58333333  0.16666667  0.08333333  1
  Co  Co1  1  0.58333333  0.16666667  0.41666667  1
  Co  Co1  1  0.58333333  0.16666667  0.75000000  1
  Co  Co1  1  0.58333333  0.50000000  0.08333333  1
  Co  Co1  1  0.58333333  0.50000000  0.41666667  1
  Co  Co1  1  0.58333333  0.50000000  0.75000000  1
  Co  Co1  1  0.58333333  0.83333333  0.08333333  1
  Co  Co1  1  0.58333333  0.83333333  0.41666667  1
  Co  Co1  1  0.58333333  0.83333333  0.75000000  1
  Co  Co1  1  0.91666667  0.16666667  0.08333333  1
  Co  Co1  1  0.91666667  0.16666667  0.41666667  1
  Co  Co1  1  0.91666667  0.16666667  0.75000000  1
  Co  Co1  1  0.91666667  0.50000000  0.08333333  1
  Co  Co1  1  0.91666667  0.50000000  0.41666667  1
  Co  Co1  1  0.91666667  0.50000000  0.75000000  1
  Co  Co1  1  0.91666667  0.83333333  0.08333333  1
  Co  Co1  1  0.91666667  0.83333333  0.41666667  1
  Co  Co1  1  0.91666667  0.83333333  0.75000000  1
  Co  Co1  1  0.25000000  0.25000000  0.00000000  1
  Co  Co1  1  0.25000000  0.25000000  0.33333333  1
  Co  Co1  1  0.25000000  0.25000000  0.66666667  1
  Co  Co1  1  0.25000000  0.58333333  0.00000000  1
  Co  Co1  1  0.25000000  0.58333333  0.33333333  1
  Co  Co1  1  0.25000000  0.58333333  0.66666667  1
  Co  Co1  1  0.25000000  0.91666667  0.00000000  1
  Co  Co1  1  0.25000000  0.91666667  0.33333333  1
  Co  Co1  1  0.25000000  0.91666667  0.66666667  1
  Co  Co1  1  0.58333333  0.25000000  0.00000000  1
  Co  Co1  1  0.58333333  0.25000000  0.33333333  1
  Co  Co1  1  0.58333333  0.25000000  0.66666667  1
  Co  Co1  1  0.58333333  0.58333333  0.00000000  1
  Co  Co1  1  0.58333333  0.58333333  0.33333333  1
  Co  Co1  1  0.58333333  0.58333333  0.66666667  1
  Co  Co1  1  0.58333333  0.91666667  0.00000000  1
  Co  Co1  1  0.58333333  0.91666667  0.33333333  1
  Co  Co1  1  0.58333333  0.91666667  0.66666667  1
  Co  Co1  1  0.91666667  0.25000000  0.00000000  1
  Co  Co1  1  0.91666667  0.25000000  0.33333333  1
  Co  Co1  1  0.91666667  0.25000000  0.66666667  1
  Co  Co1  1  0.91666667  0.58333333  0.00000000  1
  Co  Co1  1  0.91666667  0.58333333  0.33333333  1
  Co  Co1  1  0.91666667  0.58333333  0.66666667  1
  Co  Co1  1  0.91666667  0.91666667  0.00000000  1
  Co  Co1  1  0.91666667  0.91666667  0.33333333  1
  Co  Co1  1  0.91666667  0.91666667  0.66666667  1
  Co  Co1  1  0.16666667  0.00000000  0.16666667  1
  Co  Co1  1  0.16666667  0.00000000  0.50000000  1
  Co  Co1  1  0.16666667  0.00000000  0.83333333  1
  Co  Co1  1  0.16666667  0.33333333  0.16666667  1
  Co  Co1  1  0.16666667  0.33333333  0.50000000  1
  Co  Co1  1  0.16666667  0.33333333  0.83333333  1
  Co  Co1  1  0.16666667  0.66666667  0.16666667  1
  Co  Co1  1  0.16666667  0.66666667  0.50000000  1
  Co  Co1  1  0.16666667  0.66666667  0.83333333  1
  Co  Co1  1  0.50000000  0.00000000  0.16666667  1
  Co  Co1  1  0.50000000  0.00000000  0.50000000  1
  Co  Co1  1  0.50000000  0.00000000  0.83333333  1
  Co  Co1  1  0.50000000  0.33333333  0.16666667  1
  Co  Co1  1  0.50000000  0.33333333  0.50000000  1
  Co  Co1  1  0.50000000  0.33333333  0.83333333  1
  Co  Co1  1  0.50000000  0.66666667  0.16666667  1
  Co  Co1  1  0.50000000  0.66666667  0.50000000  1
  Co  Co1  1  0.50000000  0.66666667  0.83333333  1
  Co  Co1  1  0.83333333  0.00000000  0.16666667  1
  Co  Co1  1  0.83333333  0.00000000  0.50000000  1
  Co  Co1  1  0.83333333  0.00000000  0.83333333  1
  Co  Co1  1  0.83333333  0.33333333  0.16666667  1
  Co  Co1  1  0.83333333  0.33333333  0.50000000  1
  Co  Co1  1  0.83333333  0.33333333  0.83333333  1
  Co  Co1  1  0.83333333  0.66666667  0.16666667  1
  Co  Co1  1  0.83333333  0.66666667  0.50000000  1
  Co  Co1  1  0.83333333  0.66666667  0.83333333  1
  Co  Co1  1  0.16666667  0.16666667  0.00000000  1
  Co  Co1  1  0.16666667  0.16666667  0.33333333  1
  Co  Co1  1  0.16666667  0.16666667  0.66666667  1
  Co  Co1  1  0.16666667  0.50000000  0.00000000  1
  Co  Co1  1  0.16666667  0.50000000  0.33333333  1
  Co  Co1  1  0.16666667  0.50000000  0.66666667  1
  Co  Co1  1  0.16666667  0.83333333  0.00000000  1
  Co  Co1  1  0.16666667  0.83333333  0.33333333  1
  Co  Co1  1  0.16666667  0.83333333  0.66666667  1
  Co  Co1  1  0.50000000  0.16666667  0.00000000  1
  Co  Co1  1  0.50000000  0.16666667  0.33333333  1
  Co  Co1  1  0.50000000  0.16666667  0.66666667  1
  Co  Co1  1  0.50000000  0.50000000  0.00000000  1
  Co  Co1  1  0.50000000  0.50000000  0.33333333  1
  Co  Co1  1  0.50000000  0.50000000  0.66666667  1
  Co  Co1  1  0.50000000  0.83333333  0.00000000  1
  Co  Co1  1  0.50000000  0.83333333  0.33333333  1
  Co  Co1  1  0.50000000  0.83333333  0.66666667  1
  Co  Co1  1  0.83333333  0.16666667  0.00000000  1
  Co  Co1  1  0.83333333  0.16666667  0.33333333  1
  Co  Co1  1  0.83333333  0.16666667  0.66666667  1
  Co  Co1  1  0.83333333  0.50000000  0.00000000  1
  Co  Co1  1  0.83333333  0.50000000  0.33333333  1
  Co  Co1  1  0.83333333  0.50000000  0.66666667  1
  Co  Co1  1  0.83333333  0.83333333  0.00000000  1
  Co  Co1  1  0.83333333  0.83333333  0.33333333  1
  Co  Co1  1  0.83333333  0.83333333  0.66666667  1
