# generated using pymatgen
data_TaCo2
_symmetry_space_group_name_H-M   'P 1'
_cell_length_a   27.12000000
_cell_length_b   27.12000000
_cell_length_c   27.12000000
_cell_angle_alpha   90.00000000
_cell_angle_beta   90.00000000
_cell_angle_gamma   90.00000000
_symmetry_Int_Tables_number   1
_chemical_formula_structural   TaCo2
_chemical_formula_sum   'Ta512 Co1024'
_cell_volume   19946.60812800
_cell_formula_units_Z   512
loop_
 _symmetry_equiv_pos_site_id
 _symmetry_equiv_pos_as_xyz
  1  'x, y, z'
loop_
 _atom_site_type_symbol
 _atom_site_label
 _atom_site_symmetry_multiplicity
 _atom_site_fract_x
 _atom_site_fract_y
 _atom_site_fract_z
 _atom_site_occupancy
  Ta  Ta1  1  0.09375000  0.09375000  0.09375000  1
  Ta  Ta1  1  0.09375000  0.09375000  0.34375000  1
  Ta  Ta1  1  0.09375000  0.09375000  0.59375000  1
  Ta  Ta1  1  0.09375000  0.09375000  0.84375000  1
  Ta  Ta1  1  0.09375000  0.34375000  0.09375000  1
  Ta  Ta1  1  0.09375000  0.34375000  0.34375000  1
  Ta  Ta1  1  0.09375000  0.34375000  0.59375000  1
  Ta  Ta1  1  0.09375000  0.34375000  0.84375000  1
  Ta  Ta1  1  0.09375000  0.59375000  0.09375000  1
  Ta  Ta1  1  0.09375000  0.59375000  0.34375000  1
  Ta  Ta1  1  0.09375000  0.59375000  0.59375000  1
  Ta  Ta1  1  0.09375000  0.59375000  0.84375000  1
  Ta  Ta1  1  0.09375000  0.84375000  0.09375000  1
  Ta  Ta1  1  0.09375000  0.84375000  0.34375000  1
  Ta  Ta1  1  0.09375000  0.84375000  0.59375000  1
  Ta  Ta1  1  0.09375000  0.84375000  0.84375000  1
  Ta  Ta1  1  0.34375000  0.09375000  0.09375000  1
  Ta  Ta1  1  0.34375000  0.09375000  0.34375000  1
  Ta  Ta1  1  0.34375000  0.09375000  0.59375000  1
  Ta  Ta1  1  0.34375000  0.09375000  0.84375000  1
  Ta  Ta1  1  0.34375000  0.34375000  0.09375000  1
  Ta  Ta1  1  0.34375000  0.34375000  0.34375000  1
  Ta  Ta1  1  0.34375000  0.34375000  0.59375000  1
  Ta  Ta1  1  0.34375000  0.34375000  0.84375000  1
  Ta  Ta1  1  0.34375000  0.59375000  0.09375000  1
  Ta  Ta1  1  0.34375000  0.59375000  0.34375000  1
  Ta  Ta1  1  0.34375000  0.59375000  0.59375000  1
  Ta  Ta1  1  0.34375000  0.59375000  0.84375000  1
  Ta  Ta1  1  0.34375000  0.84375000  0.09375000  1
  Ta  Ta1  1  0.34375000  0.84375000  0.34375000  1
  Ta  Ta1  1  0.34375000  0.84375000  0.59375000  1
  Ta  Ta1  1  0.34375000  0.84375000  0.84375000  1
  Ta  Ta1  1  0.59375000  0.09375000  0.09375000  1
  Ta  Ta1  1  0.59375000  0.09375000  0.34375000  1
  Ta  Ta1  1  0.59375000  0.09375000  0.59375000  1
  Ta  Ta1  1  0.59375000  0.09375000  0.84375000  1
  Ta  Ta1  1  0.59375000  0.34375000  0.09375000  1
  Ta  Ta1  1  0.59375000  0.34375000  0.34375000  1
  Ta  Ta1  1  0.59375000  0.34375000  0.59375000  1
  Ta  Ta1  1  0.59375000  0.34375000  0.84375000  1
  Ta  Ta1  1  0.59375000  0.59375000  0.09375000  1
  Ta  Ta1  1  0.59375000  0.59375000  0.34375000  1
  Ta  Ta1  1  0.59375000  0.59375000  0.59375000  1
  Ta  Ta1  1  0.59375000  0.59375000  0.84375000  1
  Ta  Ta1  1  0.59375000  0.84375000  0.09375000  1
  Ta  Ta1  1  0.59375000  0.84375000  0.34375000  1
  Ta  Ta1  1  0.59375000  0.84375000  0.59375000  1
  Ta  Ta1  1  0.59375000  0.84375000  0.84375000  1
  Ta  Ta1  1  0.84375000  0.09375000  0.09375000  1
  Ta  Ta1  1  0.84375000  0.09375000  0.34375000  1
  Ta  Ta1  1  0.84375000  0.09375000  0.59375000  1
  Ta  Ta1  1  0.84375000  0.09375000  0.84375000  1
  Ta  Ta1  1  0.84375000  0.34375000  0.09375000  1
  Ta  Ta1  1  0.84375000  0.34375000  0.34375000  1
  Ta  Ta1  1  0.84375000  0.34375000  0.59375000  1
  Ta  Ta1  1  0.84375000  0.34375000  0.84375000  1
  Ta  Ta1  1  0.84375000  0.59375000  0.09375000  1
  Ta  Ta1  1  0.84375000  0.59375000  0.34375000  1
  Ta  Ta1  1  0.84375000  0.59375000  0.59375000  1
  Ta  Ta1  1  0.84375000  0.59375000  0.84375000  1
  Ta  Ta1  1  0.84375000  0.84375000  0.09375000  1
  Ta  Ta1  1  0.84375000  0.84375000  0.34375000  1
  Ta  Ta1  1  0.84375000  0.84375000  0.59375000  1
  Ta  Ta1  1  0.84375000  0.84375000  0.84375000  1
  Ta  Ta1  1  0.15625000  0.15625000  0.15625000  1
  Ta  Ta1  1  0.15625000  0.15625000  0.40625000  1
  Ta  Ta1  1  0.15625000  0.15625000  0.65625000  1
  Ta  Ta1  1  0.15625000  0.15625000  0.90625000  1
  Ta  Ta1  1  0.15625000  0.40625000  0.15625000  1
  Ta  Ta1  1  0.15625000  0.40625000  0.40625000  1
  Ta  Ta1  1  0.15625000  0.40625000  0.65625000  1
  Ta  Ta1  1  0.15625000  0.40625000  0.90625000  1
  Ta  Ta1  1  0.15625000  0.65625000  0.15625000  1
  Ta  Ta1  1  0.15625000  0.65625000  0.40625000  1
  Ta  Ta1  1  0.15625000  0.65625000  0.65625000  1
  Ta  Ta1  1  0.15625000  0.65625000  0.90625000  1
  Ta  Ta1  1  0.15625000  0.90625000  0.15625000  1
  Ta  Ta1  1  0.15625000  0.90625000  0.40625000  1
  Ta  Ta1  1  0.15625000  0.90625000  0.65625000  1
  Ta  Ta1  1  0.15625000  0.90625000  0.90625000  1
  Ta  Ta1  1  0.40625000  0.15625000  0.15625000  1
  Ta  Ta1  1  0.40625000  0.15625000  0.40625000  1
  Ta  Ta1  1  0.40625000  0.15625000  0.65625000  1
  Ta  Ta1  1  0.40625000  0.15625000  0.90625000  1
  Ta  Ta1  1  0.40625000  0.40625000  0.15625000  1
  Ta  Ta1  1  0.40625000  0.40625000  0.40625000  1
  Ta  Ta1  1  0.40625000  0.40625000  0.65625000  1
  Ta  Ta1  1  0.40625000  0.40625000  0.90625000  1
  Ta  Ta1  1  0.40625000  0.65625000  0.15625000  1
  Ta  Ta1  1  0.40625000  0.65625000  0.40625000  1
  Ta  Ta1  1  0.40625000  0.65625000  0.65625000  1
  Ta  Ta1  1  0.40625000  0.65625000  0.90625000  1
  Ta  Ta1  1  0.40625000  0.90625000  0.15625000  1
  Ta  Ta1  1  0.40625000  0.90625000  0.40625000  1
  Ta  Ta1  1  0.40625000  0.90625000  0.65625000  1
  Ta  Ta1  1  0.40625000  0.90625000  0.90625000  1
  Ta  Ta1  1  0.65625000  0.15625000  0.15625000  1
  Ta  Ta1  1  0.65625000  0.15625000  0.40625000  1
  Ta  Ta1  1  0.65625000  0.15625000  0.65625000  1
  Ta  Ta1  1  0.65625000  0.15625000  0.90625000  1
  Ta  Ta1  1  0.65625000  0.40625000  0.15625000  1
  Ta  Ta1  1  0.65625000  0.40625000  0.40625000  1
  Ta  Ta1  1  0.65625000  0.40625000  0.65625000  1
  Ta  Ta1  1  0.65625000  0.40625000  0.90625000  1
  Ta  Ta1  1  0.65625000  0.65625000  0.15625000  1
  Ta  Ta1  1  0.65625000  0.65625000  0.40625000  1
  Ta  Ta1  1  0.65625000  0.65625000  0.65625000  1
  Ta  Ta1  1  0.65625000  0.65625000  0.90625000  1
  Ta  Ta1  1  0.65625000  0.90625000  0.15625000  1
  Ta  Ta1  1  0.65625000  0.90625000  0.40625000  1
  Ta  Ta1  1  0.65625000  0.90625000  0.65625000  1
  Ta  Ta1  1  0.65625000  0.90625000  0.90625000  1
  Ta  Ta1  1  0.90625000  0.15625000  0.15625000  1
  Ta  Ta1  1  0.90625000  0.15625000  0.40625000  1
  Ta  Ta1  1  0.90625000  0.15625000  0.65625000  1
  Ta  Ta1  1  0.90625000  0.15625000  0.90625000  1
  Ta  Ta1  1  0.90625000  0.40625000  0.15625000  1
  Ta  Ta1  1  0.90625000  0.40625000  0.40625000  1
  Ta  Ta1  1  0.90625000  0.40625000  0.65625000  1
  Ta  Ta1  1  0.90625000  0.40625000  0.90625000  1
  Ta  Ta1  1  0.90625000  0.65625000  0.15625000  1
  Ta  Ta1  1  0.90625000  0.65625000  0.40625000  1
  Ta  Ta1  1  0.90625000  0.65625000  0.65625000  1
  Ta  Ta1  1  0.90625000  0.65625000  0.90625000  1
  Ta  Ta1  1  0.90625000  0.90625000  0.15625000  1
  Ta  Ta1  1  0.90625000  0.90625000  0.40625000  1
  Ta  Ta1  1  0.90625000  0.90625000  0.65625000  1
  Ta  Ta1  1  0.90625000  0.90625000  0.90625000  1
  Ta  Ta1  1  0.09375000  0.21875000  0.21875000  1
  Ta  Ta1  1  0.09375000  0.21875000  0.46875000  1
  Ta  Ta1  1  0.09375000  0.21875000  0.71875000  1
  Ta  Ta1  1  0.09375000  0.21875000  0.96875000  1
  Ta  Ta1  1  0.09375000  0.46875000  0.21875000  1
  Ta  Ta1  1  0.09375000  0.46875000  0.46875000  1
  Ta  Ta1  1  0.09375000  0.46875000  0.71875000  1
  Ta  Ta1  1  0.09375000  0.46875000  0.96875000  1
  Ta  Ta1  1  0.09375000  0.71875000  0.21875000  1
  Ta  Ta1  1  0.09375000  0.71875000  0.46875000  1
  Ta  Ta1  1  0.09375000  0.71875000  0.71875000  1
  Ta  Ta1  1  0.09375000  0.71875000  0.96875000  1
  Ta  Ta1  1  0.09375000  0.96875000  0.21875000  1
  Ta  Ta1  1  0.09375000  0.96875000  0.46875000  1
  Ta  Ta1  1  0.09375000  0.96875000  0.71875000  1
  Ta  Ta1  1  0.09375000  0.96875000  0.96875000  1
  Ta  Ta1  1  0.34375000  0.21875000  0.21875000  1
  Ta  Ta1  1  0.34375000  0.21875000  0.46875000  1
  Ta  Ta1  1  0.34375000  0.21875000  0.71875000  1
  Ta  Ta1  1  0.34375000  0.21875000  0.96875000  1
  Ta  Ta1  1  0.34375000  0.46875000  0.21875000  1
  Ta  Ta1  1  0.34375000  0.46875000  0.46875000  1
  Ta  Ta1  1  0.34375000  0.46875000  0.71875000  1
  Ta  Ta1  1  0.34375000  0.46875000  0.96875000  1
  Ta  Ta1  1  0.34375000  0.71875000  0.21875000  1
  Ta  Ta1  1  0.34375000  0.71875000  0.46875000  1
  Ta  Ta1  1  0.34375000  0.71875000  0.71875000  1
  Ta  Ta1  1  0.34375000  0.71875000  0.96875000  1
  Ta  Ta1  1  0.34375000  0.96875000  0.21875000  1
  Ta  Ta1  1  0.34375000  0.96875000  0.46875000  1
  Ta  Ta1  1  0.34375000  0.96875000  0.71875000  1
  Ta  Ta1  1  0.34375000  0.96875000  0.96875000  1
  Ta  Ta1  1  0.59375000  0.21875000  0.21875000  1
  Ta  Ta1  1  0.59375000  0.21875000  0.46875000  1
  Ta  Ta1  1  0.59375000  0.21875000  0.71875000  1
  Ta  Ta1  1  0.59375000  0.21875000  0.96875000  1
  Ta  Ta1  1  0.59375000  0.46875000  0.21875000  1
  Ta  Ta1  1  0.59375000  0.46875000  0.46875000  1
  Ta  Ta1  1  0.59375000  0.46875000  0.71875000  1
  Ta  Ta1  1  0.59375000  0.46875000  0.96875000  1
  Ta  Ta1  1  0.59375000  0.71875000  0.21875000  1
  Ta  Ta1  1  0.59375000  0.71875000  0.46875000  1
  Ta  Ta1  1  0.59375000  0.71875000  0.71875000  1
  Ta  Ta1  1  0.59375000  0.71875000  0.96875000  1
  Ta  Ta1  1  0.59375000  0.96875000  0.21875000  1
  Ta  Ta1  1  0.59375000  0.96875000  0.46875000  1
  Ta  Ta1  1  0.59375000  0.96875000  0.71875000  1
  Ta  Ta1  1  0.59375000  0.96875000  0.96875000  1
  Ta  Ta1  1  0.84375000  0.21875000  0.21875000  1
  Ta  Ta1  1  0.84375000  0.21875000  0.46875000  1
  Ta  Ta1  1  0.84375000  0.21875000  0.71875000  1
  Ta  Ta1  1  0.84375000  0.21875000  0.96875000  1
  Ta  Ta1  1  0.84375000  0.46875000  0.21875000  1
  Ta  Ta1  1  0.84375000  0.46875000  0.46875000  1
  Ta  Ta1  1  0.84375000  0.46875000  0.71875000  1
  Ta  Ta1  1  0.84375000  0.46875000  0.96875000  1
  Ta  Ta1  1  0.84375000  0.71875000  0.21875000  1
  Ta  Ta1  1  0.84375000  0.71875000  0.46875000  1
  Ta  Ta1  1  0.84375000  0.71875000  0.71875000  1
  Ta  Ta1  1  0.84375000  0.71875000  0.96875000  1
  Ta  Ta1  1  0.84375000  0.96875000  0.21875000  1
  Ta  Ta1  1  0.84375000  0.96875000  0.46875000  1
  Ta  Ta1  1  0.84375000  0.96875000  0.71875000  1
  Ta  Ta1  1  0.84375000  0.96875000  0.96875000  1
  Ta  Ta1  1  0.03125000  0.15625000  0.03125000  1
  Ta  Ta1  1  0.03125000  0.15625000  0.28125000  1
  Ta  Ta1  1  0.03125000  0.15625000  0.53125000  1
  Ta  Ta1  1  0.03125000  0.15625000  0.78125000  1
  Ta  Ta1  1  0.03125000  0.40625000  0.03125000  1
  Ta  Ta1  1  0.03125000  0.40625000  0.28125000  1
  Ta  Ta1  1  0.03125000  0.40625000  0.53125000  1
  Ta  Ta1  1  0.03125000  0.40625000  0.78125000  1
  Ta  Ta1  1  0.03125000  0.65625000  0.03125000  1
  Ta  Ta1  1  0.03125000  0.65625000  0.28125000  1
  Ta  Ta1  1  0.03125000  0.65625000  0.53125000  1
  Ta  Ta1  1  0.03125000  0.65625000  0.78125000  1
  Ta  Ta1  1  0.03125000  0.90625000  0.03125000  1
  Ta  Ta1  1  0.03125000  0.90625000  0.28125000  1
  Ta  Ta1  1  0.03125000  0.90625000  0.53125000  1
  Ta  Ta1  1  0.03125000  0.90625000  0.78125000  1
  Ta  Ta1  1  0.28125000  0.15625000  0.03125000  1
  Ta  Ta1  1  0.28125000  0.15625000  0.28125000  1
  Ta  Ta1  1  0.28125000  0.15625000  0.53125000  1
  Ta  Ta1  1  0.28125000  0.15625000  0.78125000  1
  Ta  Ta1  1  0.28125000  0.40625000  0.03125000  1
  Ta  Ta1  1  0.28125000  0.40625000  0.28125000  1
  Ta  Ta1  1  0.28125000  0.40625000  0.53125000  1
  Ta  Ta1  1  0.28125000  0.40625000  0.78125000  1
  Ta  Ta1  1  0.28125000  0.65625000  0.03125000  1
  Ta  Ta1  1  0.28125000  0.65625000  0.28125000  1
  Ta  Ta1  1  0.28125000  0.65625000  0.53125000  1
  Ta  Ta1  1  0.28125000  0.65625000  0.78125000  1
  Ta  Ta1  1  0.28125000  0.90625000  0.03125000  1
  Ta  Ta1  1  0.28125000  0.90625000  0.28125000  1
  Ta  Ta1  1  0.28125000  0.90625000  0.53125000  1
  Ta  Ta1  1  0.28125000  0.90625000  0.78125000  1
  Ta  Ta1  1  0.53125000  0.15625000  0.03125000  1
  Ta  Ta1  1  0.53125000  0.15625000  0.28125000  1
  Ta  Ta1  1  0.53125000  0.15625000  0.53125000  1
  Ta  Ta1  1  0.53125000  0.15625000  0.78125000  1
  Ta  Ta1  1  0.53125000  0.40625000  0.03125000  1
  Ta  Ta1  1  0.53125000  0.40625000  0.28125000  1
  Ta  Ta1  1  0.53125000  0.40625000  0.53125000  1
  Ta  Ta1  1  0.53125000  0.40625000  0.78125000  1
  Ta  Ta1  1  0.53125000  0.65625000  0.03125000  1
  Ta  Ta1  1  0.53125000  0.65625000  0.28125000  1
  Ta  Ta1  1  0.53125000  0.65625000  0.53125000  1
  Ta  Ta1  1  0.53125000  0.65625000  0.78125000  1
  Ta  Ta1  1  0.53125000  0.90625000  0.03125000  1
  Ta  Ta1  1  0.53125000  0.90625000  0.28125000  1
  Ta  Ta1  1  0.53125000  0.90625000  0.53125000  1
  Ta  Ta1  1  0.53125000  0.90625000  0.78125000  1
  Ta  Ta1  1  0.78125000  0.15625000  0.03125000  1
  Ta  Ta1  1  0.78125000  0.15625000  0.28125000  1
  Ta  Ta1  1  0.78125000  0.15625000  0.53125000  1
  Ta  Ta1  1  0.78125000  0.15625000  0.78125000  1
  Ta  Ta1  1  0.78125000  0.40625000  0.03125000  1
  Ta  Ta1  1  0.78125000  0.40625000  0.28125000  1
  Ta  Ta1  1  0.78125000  0.40625000  0.53125000  1
  Ta  Ta1  1  0.78125000  0.40625000  0.78125000  1
  Ta  Ta1  1  0.78125000  0.65625000  0.03125000  1
  Ta  Ta1  1  0.78125000  0.65625000  0.28125000  1
  Ta  Ta1  1  0.78125000  0.65625000  0.53125000  1
  Ta  Ta1  1  0.78125000  0.65625000  0.78125000  1
  Ta  Ta1  1  0.78125000  0.90625000  0.03125000  1
  Ta  Ta1  1  0.78125000  0.90625000  0.28125000  1
  Ta  Ta1  1  0.78125000  0.90625000  0.53125000  1
  Ta  Ta1  1  0.78125000  0.90625000  0.78125000  1
  Ta  Ta1  1  0.21875000  0.09375000  0.21875000  1
  Ta  Ta1  1  0.21875000  0.09375000  0.46875000  1
  Ta  Ta1  1  0.21875000  0.09375000  0.71875000  1
  Ta  Ta1  1  0.21875000  0.09375000  0.96875000  1
  Ta  Ta1  1  0.21875000  0.34375000  0.21875000  1
  Ta  Ta1  1  0.21875000  0.34375000  0.46875000  1
  Ta  Ta1  1  0.21875000  0.34375000  0.71875000  1
  Ta  Ta1  1  0.21875000  0.34375000  0.96875000  1
  Ta  Ta1  1  0.21875000  0.59375000  0.21875000  1
  Ta  Ta1  1  0.21875000  0.59375000  0.46875000  1
  Ta  Ta1  1  0.21875000  0.59375000  0.71875000  1
  Ta  Ta1  1  0.21875000  0.59375000  0.96875000  1
  Ta  Ta1  1  0.21875000  0.84375000  0.21875000  1
  Ta  Ta1  1  0.21875000  0.84375000  0.46875000  1
  Ta  Ta1  1  0.21875000  0.84375000  0.71875000  1
  Ta  Ta1  1  0.21875000  0.84375000  0.96875000  1
  Ta  Ta1  1  0.46875000  0.09375000  0.21875000  1
  Ta  Ta1  1  0.46875000  0.09375000  0.46875000  1
  Ta  Ta1  1  0.46875000  0.09375000  0.71875000  1
  Ta  Ta1  1  0.46875000  0.09375000  0.96875000  1
  Ta  Ta1  1  0.46875000  0.34375000  0.21875000  1
  Ta  Ta1  1  0.46875000  0.34375000  0.46875000  1
  Ta  Ta1  1  0.46875000  0.34375000  0.71875000  1
  Ta  Ta1  1  0.46875000  0.34375000  0.96875000  1
  Ta  Ta1  1  0.46875000  0.59375000  0.21875000  1
  Ta  Ta1  1  0.46875000  0.59375000  0.46875000  1
  Ta  Ta1  1  0.46875000  0.59375000  0.71875000  1
  Ta  Ta1  1  0.46875000  0.59375000  0.96875000  1
  Ta  Ta1  1  0.46875000  0.84375000  0.21875000  1
  Ta  Ta1  1  0.46875000  0.84375000  0.46875000  1
  Ta  Ta1  1  0.46875000  0.84375000  0.71875000  1
  Ta  Ta1  1  0.46875000  0.84375000  0.96875000  1
  Ta  Ta1  1  0.71875000  0.09375000  0.21875000  1
  Ta  Ta1  1  0.71875000  0.09375000  0.46875000  1
  Ta  Ta1  1  0.71875000  0.09375000  0.71875000  1
  Ta  Ta1  1  0.71875000  0.09375000  0.96875000  1
  Ta  Ta1  1  0.71875000  0.34375000  0.21875000  1
  Ta  Ta1  1  0.71875000  0.34375000  0.46875000  1
  Ta  Ta1  1  0.71875000  0.34375000  0.71875000  1
  Ta  Ta1  1  0.71875000  0.34375000  0.96875000  1
  Ta  Ta1  1  0.71875000  0.59375000  0.21875000  1
  Ta  Ta1  1  0.71875000  0.59375000  0.46875000  1
  Ta  Ta1  1  0.71875000  0.59375000  0.71875000  1
  Ta  Ta1  1  0.71875000  0.59375000  0.96875000  1
  Ta  Ta1  1  0.71875000  0.84375000  0.21875000  1
  Ta  Ta1  1  0.71875000  0.84375000  0.46875000  1
  Ta  Ta1  1  0.71875000  0.84375000  0.71875000  1
  Ta  Ta1  1  0.71875000  0.84375000  0.96875000  1
  Ta  Ta1  1  0.96875000  0.09375000  0.21875000  1
  Ta  Ta1  1  0.96875000  0.09375000  0.46875000  1
  Ta  Ta1  1  0.96875000  0.09375000  0.71875000  1
  Ta  Ta1  1  0.96875000  0.09375000  0.96875000  1
  Ta  Ta1  1  0.96875000  0.34375000  0.21875000  1
  Ta  Ta1  1  0.96875000  0.34375000  0.46875000  1
  Ta  Ta1  1  0.96875000  0.34375000  0.71875000  1
  Ta  Ta1  1  0.96875000  0.34375000  0.96875000  1
  Ta  Ta1  1  0.96875000  0.59375000  0.21875000  1
  Ta  Ta1  1  0.96875000  0.59375000  0.46875000  1
  Ta  Ta1  1  0.96875000  0.59375000  0.71875000  1
  Ta  Ta1  1  0.96875000  0.59375000  0.96875000  1
  Ta  Ta1  1  0.96875000  0.84375000  0.21875000  1
  Ta  Ta1  1  0.96875000  0.84375000  0.46875000  1
  Ta  Ta1  1  0.96875000  0.84375000  0.71875000  1
  Ta  Ta1  1  0.96875000  0.84375000  0.96875000  1
  Ta  Ta1  1  0.15625000  0.03125000  0.03125000  1
  Ta  Ta1  1  0.15625000  0.03125000  0.28125000  1
  Ta  Ta1  1  0.15625000  0.03125000  0.53125000  1
  Ta  Ta1  1  0.15625000  0.03125000  0.78125000  1
  Ta  Ta1  1  0.15625000  0.28125000  0.03125000  1
  Ta  Ta1  1  0.15625000  0.28125000  0.28125000  1
  Ta  Ta1  1  0.15625000  0.28125000  0.53125000  1
  Ta  Ta1  1  0.15625000  0.28125000  0.78125000  1
  Ta  Ta1  1  0.15625000  0.53125000  0.03125000  1
  Ta  Ta1  1  0.15625000  0.53125000  0.28125000  1
  Ta  Ta1  1  0.15625000  0.53125000  0.53125000  1
  Ta  Ta1  1  0.15625000  0.53125000  0.78125000  1
  Ta  Ta1  1  0.15625000  0.78125000  0.03125000  1
  Ta  Ta1  1  0.15625000  0.78125000  0.28125000  1
  Ta  Ta1  1  0.15625000  0.78125000  0.53125000  1
  Ta  Ta1  1  0.15625000  0.78125000  0.78125000  1
  Ta  Ta1  1  0.40625000  0.03125000  0.03125000  1
  Ta  Ta1  1  0.40625000  0.03125000  0.28125000  1
  Ta  Ta1  1  0.40625000  0.03125000  0.53125000  1
  Ta  Ta1  1  0.40625000  0.03125000  0.78125000  1
  Ta  Ta1  1  0.40625000  0.28125000  0.03125000  1
  Ta  Ta1  1  0.40625000  0.28125000  0.28125000  1
  Ta  Ta1  1  0.40625000  0.28125000  0.53125000  1
  Ta  Ta1  1  0.40625000  0.28125000  0.78125000  1
  Ta  Ta1  1  0.40625000  0.53125000  0.03125000  1
  Ta  Ta1  1  0.40625000  0.53125000  0.28125000  1
  Ta  Ta1  1  0.40625000  0.53125000  0.53125000  1
  Ta  Ta1  1  0.40625000  0.53125000  0.78125000  1
  Ta  Ta1  1  0.40625000  0.78125000  0.03125000  1
  Ta  Ta1  1  0.40625000  0.78125000  0.28125000  1
  Ta  Ta1  1  0.40625000  0.78125000  0.53125000  1
  Ta  Ta1  1  0.40625000  0.78125000  0.78125000  1
  Ta  Ta1  1  0.65625000  0.03125000  0.03125000  1
  Ta  Ta1  1  0.65625000  0.03125000  0.28125000  1
  Ta  Ta1  1  0.65625000  0.03125000  0.53125000  1
  Ta  Ta1  1  0.65625000  0.03125000  0.78125000  1
  Ta  Ta1  1  0.65625000  0.28125000  0.03125000  1
  Ta  Ta1  1  0.65625000  0.28125000  0.28125000  1
  Ta  Ta1  1  0.65625000  0.28125000  0.53125000  1
  Ta  Ta1  1  0.65625000  0.28125000  0.78125000  1
  Ta  Ta1  1  0.65625000  0.53125000  0.03125000  1
  Ta  Ta1  1  0.65625000  0.53125000  0.28125000  1
  Ta  Ta1  1  0.65625000  0.53125000  0.53125000  1
  Ta  Ta1  1  0.65625000  0.53125000  0.78125000  1
  Ta  Ta1  1  0.65625000  0.78125000  0.03125000  1
  Ta  Ta1  1  0.65625000  0.78125000  0.28125000  1
  Ta  Ta1  1  0.65625000  0.78125000  0.53125000  1
  Ta  Ta1  1  0.65625000  0.78125000  0.78125000  1
  Ta  Ta1  1  0.90625000  0.03125000  0.03125000  1
  Ta  Ta1  1  0.90625000  0.03125000  0.28125000  1
  Ta  Ta1  1  0.90625000  0.03125000  0.53125000  1
  Ta  Ta1  1  0.90625000  0.03125000  0.78125000  1
  Ta  Ta1  1  0.90625000  0.28125000  0.03125000  1
  Ta  Ta1  1  0.90625000  0.28125000  0.28125000  1
  Ta  Ta1  1  0.90625000  0.28125000  0.53125000  1
  Ta  Ta1  1  0.90625000  0.28125000  0.78125000  1
  Ta  Ta1  1  0.90625000  0.53125000  0.03125000  1
  Ta  Ta1  1  0.90625000  0.53125000  0.28125000  1
  Ta  Ta1  1  0.90625000  0.53125000  0.53125000  1
  Ta  Ta1  1  0.90625000  0.53125000  0.78125000  1
  Ta  Ta1  1  0.90625000  0.78125000  0.03125000  1
  Ta  Ta1  1  0.90625000  0.78125000  0.28125000  1
  Ta  Ta1  1  0.90625000  0.78125000  0.53125000  1
  Ta  Ta1  1  0.90625000  0.78125000  0.78125000  1
  Ta  Ta1  1  0.21875000  0.21875000  0.09375000  1
  Ta  Ta1  1  0.21875000  0.21875000  0.34375000  1
  Ta  Ta1  1  0.21875000  0.21875000  0.59375000  1
  Ta  Ta1  1  0.21875000  0.21875000  0.84375000  1
  Ta  Ta1  1  0.21875000  0.46875000  0.09375000  1
  Ta  Ta1  1  0.21875000  0.46875000  0.34375000  1
  Ta  Ta1  1  0.21875000  0.46875000  0.59375000  1
  Ta  Ta1  1  0.21875000  0.46875000  0.84375000  1
  Ta  Ta1  1  0.21875000  0.71875000  0.09375000  1
  Ta  Ta1  1  0.21875000  0.71875000  0.34375000  1
  Ta  Ta1  1  0.21875000  0.71875000  0.59375000  1
  Ta  Ta1  1  0.21875000  0.71875000  0.84375000  1
  Ta  Ta1  1  0.21875000  0.96875000  0.09375000  1
  Ta  Ta1  1  0.21875000  0.96875000  0.34375000  1
  Ta  Ta1  1  0.21875000  0.96875000  0.59375000  1
  Ta  Ta1  1  0.21875000  0.96875000  0.84375000  1
  Ta  Ta1  1  0.46875000  0.21875000  0.09375000  1
  Ta  Ta1  1  0.46875000  0.21875000  0.34375000  1
  Ta  Ta1  1  0.46875000  0.21875000  0.59375000  1
  Ta  Ta1  1  0.46875000  0.21875000  0.84375000  1
  Ta  Ta1  1  0.46875000  0.46875000  0.09375000  1
  Ta  Ta1  1  0.46875000  0.46875000  0.34375000  1
  Ta  Ta1  1  0.46875000  0.46875000  0.59375000  1
  Ta  Ta1  1  0.46875000  0.46875000  0.84375000  1
  Ta  Ta1  1  0.46875000  0.71875000  0.09375000  1
  Ta  Ta1  1  0.46875000  0.71875000  0.34375000  1
  Ta  Ta1  1  0.46875000  0.71875000  0.59375000  1
  Ta  Ta1  1  0.46875000  0.71875000  0.84375000  1
  Ta  Ta1  1  0.46875000  0.96875000  0.09375000  1
  Ta  Ta1  1  0.46875000  0.96875000  0.34375000  1
  Ta  Ta1  1  0.46875000  0.96875000  0.59375000  1
  Ta  Ta1  1  0.46875000  0.96875000  0.84375000  1
  Ta  Ta1  1  0.71875000  0.21875000  0.09375000  1
  Ta  Ta1  1  0.71875000  0.21875000  0.34375000  1
  Ta  Ta1  1  0.71875000  0.21875000  0.59375000  1
  Ta  Ta1  1  0.71875000  0.21875000  0.84375000  1
  Ta  Ta1  1  0.71875000  0.46875000  0.09375000  1
  Ta  Ta1  1  0.71875000  0.46875000  0.34375000  1
  Ta  Ta1  1  0.71875000  0.46875000  0.59375000  1
  Ta  Ta1  1  0.71875000  0.46875000  0.84375000  1
  Ta  Ta1  1  0.71875000  0.71875000  0.09375000  1
  Ta  Ta1  1  0.71875000  0.71875000  0.34375000  1
  Ta  Ta1  1  0.71875000  0.71875000  0.59375000  1
  Ta  Ta1  1  0.71875000  0.71875000  0.84375000  1
  Ta  Ta1  1  0.71875000  0.96875000  0.09375000  1
  Ta  Ta1  1  0.71875000  0.96875000  0.34375000  1
  Ta  Ta1  1  0.71875000  0.96875000  0.59375000  1
  Ta  Ta1  1  0.71875000  0.96875000  0.84375000  1
  Ta  Ta1  1  0.96875000  0.21875000  0.09375000  1
  Ta  Ta1  1  0.96875000  0.21875000  0.34375000  1
  Ta  Ta1  1  0.96875000  0.21875000  0.59375000  1
  Ta  Ta1  1  0.96875000  0.21875000  0.84375000  1
  Ta  Ta1  1  0.96875000  0.46875000  0.09375000  1
  Ta  Ta1  1  0.96875000  0.46875000  0.34375000  1
  Ta  Ta1  1  0.96875000  0.46875000  0.59375000  1
  Ta  Ta1  1  0.96875000  0.46875000  0.84375000  1
  Ta  Ta1  1  0.96875000  0.71875000  0.09375000  1
  Ta  Ta1  1  0.96875000  0.71875000  0.34375000  1
  Ta  Ta1  1  0.96875000  0.71875000  0.59375000  1
  Ta  Ta1  1  0.96875000  0.71875000  0.84375000  1
  Ta  Ta1  1  0.96875000  0.96875000  0.09375000  1
  Ta  Ta1  1  0.96875000  0.96875000  0.34375000  1
  Ta  Ta1  1  0.96875000  0.96875000  0.59375000  1
  Ta  Ta1  1  0.96875000  0.96875000  0.84375000  1
  Ta  Ta1  1  0.03125000  0.03125000  0.15625000  1
  Ta  Ta1  1  0.03125000  0.03125000  0.40625000  1
  Ta  Ta1  1  0.03125000  0.03125000  0.65625000  1
  Ta  Ta1  1  0.03125000  0.03125000  0.90625000  1
  Ta  Ta1  1  0.03125000  0.28125000  0.15625000  1
  Ta  Ta1  1  0.03125000  0.28125000  0.40625000  1
  Ta  Ta1  1  0.03125000  0.28125000  0.65625000  1
  Ta  Ta1  1  0.03125000  0.28125000  0.90625000  1
  Ta  Ta1  1  0.03125000  0.53125000  0.15625000  1
  Ta  Ta1  1  0.03125000  0.53125000  0.40625000  1
  Ta  Ta1  1  0.03125000  0.53125000  0.65625000  1
  Ta  Ta1  1  0.03125000  0.53125000  0.90625000  1
  Ta  Ta1  1  0.03125000  0.78125000  0.15625000  1
  Ta  Ta1  1  0.03125000  0.78125000  0.40625000  1
  Ta  Ta1  1  0.03125000  0.78125000  0.65625000  1
  Ta  Ta1  1  0.03125000  0.78125000  0.90625000  1
  Ta  Ta1  1  0.28125000  0.03125000  0.15625000  1
  Ta  Ta1  1  0.28125000  0.03125000  0.40625000  1
  Ta  Ta1  1  0.28125000  0.03125000  0.65625000  1
  Ta  Ta1  1  0.28125000  0.03125000  0.90625000  1
  Ta  Ta1  1  0.28125000  0.28125000  0.15625000  1
  Ta  Ta1  1  0.28125000  0.28125000  0.40625000  1
  Ta  Ta1  1  0.28125000  0.28125000  0.65625000  1
  Ta  Ta1  1  0.28125000  0.28125000  0.90625000  1
  Ta  Ta1  1  0.28125000  0.53125000  0.15625000  1
  Ta  Ta1  1  0.28125000  0.53125000  0.40625000  1
  Ta  Ta1  1  0.28125000  0.53125000  0.65625000  1
  Ta  Ta1  1  0.28125000  0.53125000  0.90625000  1
  Ta  Ta1  1  0.28125000  0.78125000  0.15625000  1
  Ta  Ta1  1  0.28125000  0.78125000  0.40625000  1
  Ta  Ta1  1  0.28125000  0.78125000  0.65625000  1
  Ta  Ta1  1  0.28125000  0.78125000  0.90625000  1
  Ta  Ta1  1  0.53125000  0.03125000  0.15625000  1
  Ta  Ta1  1  0.53125000  0.03125000  0.40625000  1
  Ta  Ta1  1  0.53125000  0.03125000  0.65625000  1
  Ta  Ta1  1  0.53125000  0.03125000  0.90625000  1
  Ta  Ta1  1  0.53125000  0.28125000  0.15625000  1
  Ta  Ta1  1  0.53125000  0.28125000  0.40625000  1
  Ta  Ta1  1  0.53125000  0.28125000  0.65625000  1
  Ta  Ta1  1  0.53125000  0.28125000  0.90625000  1
  Ta  Ta1  1  0.53125000  0.53125000  0.15625000  1
  Ta  Ta1  1  0.53125000  0.53125000  0.40625000  1
  Ta  Ta1  1  0.53125000  0.53125000  0.65625000  1
  Ta  Ta1  1  0.53125000  0.53125000  0.90625000  1
  Ta  Ta1  1  0.53125000  0.78125000  0.15625000  1
  Ta  Ta1  1  0.53125000  0.78125000  0.40625000  1
  Ta  Ta1  1  0.53125000  0.78125000  0.65625000  1
  Ta  Ta1  1  0.53125000  0.78125000  0.90625000  1
  Ta  Ta1  1  0.78125000  0.03125000  0.15625000  1
  Ta  Ta1  1  0.78125000  0.03125000  0.40625000  1
  Ta  Ta1  1  0.78125000  0.03125000  0.65625000  1
  Ta  Ta1  1  0.78125000  0.03125000  0.90625000  1
  Ta  Ta1  1  0.78125000  0.28125000  0.15625000  1
  Ta  Ta1  1  0.78125000  0.28125000  0.40625000  1
  Ta  Ta1  1  0.78125000  0.28125000  0.65625000  1
  Ta  Ta1  1  0.78125000  0.28125000  0.90625000  1
  Ta  Ta1  1  0.78125000  0.53125000  0.15625000  1
  Ta  Ta1  1  0.78125000  0.53125000  0.40625000  1
  Ta  Ta1  1  0.78125000  0.53125000  0.65625000  1
  Ta  Ta1  1  0.78125000  0.53125000  0.90625000  1
  Ta  Ta1  1  0.78125000  0.78125000  0.15625000  1
  Ta  Ta1  1  0.78125000  0.78125000  0.40625000  1
  Ta  Ta1  1  0.78125000  0.78125000  0.65625000  1
  Ta  Ta1  1  0.78125000  0.78125000  0.90625000  1
  Co  Co1  1  0.00000000  0.00000000  0.00000000  1
  Co  Co1  1  0.00000000  0.00000000  0.25000000  1
  Co  Co1  1  0.00000000  0.00000000  0.50000000  1
  Co  Co1  1  0.00000000  0.00000000  0.75000000  1
  Co  Co1  1  0.00000000  0.25000000  0.00000000  1
  Co  Co1  1  0.00000000  0.25000000  0.25000000  1
  Co  Co1  1  0.00000000  0.25000000  0.50000000  1
  Co  Co1  1  0.00000000  0.25000000  0.75000000  1
  Co  Co1  1  0.00000000  0.50000000  0.00000000  1
  Co  Co1  1  0.00000000  0.50000000  0.25000000  1
  Co  Co1  1  0.00000000  0.50000000  0.50000000  1
  Co  Co1  1  0.00000000  0.50000000  0.75000000  1
  Co  Co1  1  0.00000000  0.75000000  0.00000000  1
  Co  Co1  1  0.00000000  0.75000000  0.25000000  1
  Co  Co1  1  0.00000000  0.75000000  0.50000000  1
  Co  Co1  1  0.00000000  0.75000000  0.75000000  1
  Co  Co1  1  0.25000000  0.00000000  0.00000000  1
  Co  Co1  1  0.25000000  0.00000000  0.25000000  1
  Co  Co1  1  0.25000000  0.00000000  0.50000000  1
  Co  Co1  1  0.25000000  0.00000000  0.75000000  1
  Co  Co1  1  0.25000000  0.25000000  0.00000000  1
  Co  Co1  1  0.25000000  0.25000000  0.25000000  1
  Co  Co1  1  0.25000000  0.25000000  0.50000000  1
  Co  Co1  1  0.25000000  0.25000000  0.75000000  1
  Co  Co1  1  0.25000000  0.50000000  0.00000000  1
  Co  Co1  1  0.25000000  0.50000000  0.25000000  1
  Co  Co1  1  0.25000000  0.50000000  0.50000000  1
  Co  Co1  1  0.25000000  0.50000000  0.75000000  1
  Co  Co1  1  0.25000000  0.75000000  0.00000000  1
  Co  Co1  1  0.25000000  0.75000000  0.25000000  1
  Co  Co1  1  0.25000000  0.75000000  0.50000000  1
  Co  Co1  1  0.25000000  0.75000000  0.75000000  1
  Co  Co1  1  0.50000000  0.00000000  0.00000000  1
  Co  Co1  1  0.50000000  0.00000000  0.25000000  1
  Co  Co1  1  0.50000000  0.00000000  0.50000000  1
  Co  Co1  1  0.50000000  0.00000000  0.75000000  1
  Co  Co1  1  0.50000000  0.25000000  0.00000000  1
  Co  Co1  1  0.50000000  0.25000000  0.25000000  1
  Co  Co1  1  0.50000000  0.25000000  0.50000000  1
  Co  Co1  1  0.50000000  0.25000000  0.75000000  1
  Co  Co1  1  0.50000000  0.50000000  0.00000000  1
  Co  Co1  1  0.50000000  0.50000000  0.25000000  1
  Co  Co1  1  0.50000000  0.50000000  0.50000000  1
  Co  Co1  1  0.50000000  0.50000000  0.75000000  1
  Co  Co1  1  0.50000000  0.75000000  0.00000000  1
  Co  Co1  1  0.50000000  0.75000000  0.25000000  1
  Co  Co1  1  0.50000000  0.75000000  0.50000000  1
  Co  Co1  1  0.50000000  0.75000000  0.75000000  1
  Co  Co1  1  0.75000000  0.00000000  0.00000000  1
  Co  Co1  1  0.75000000  0.00000000  0.25000000  1
  Co  Co1  1  0.75000000  0.00000000  0.50000000  1
  Co  Co1  1  0.75000000  0.00000000  0.75000000  1
  Co  Co1  1  0.75000000  0.25000000  0.00000000  1
  Co  Co1  1  0.75000000  0.25000000  0.25000000  1
  Co  Co1  1  0.75000000  0.25000000  0.50000000  1
  Co  Co1  1  0.75000000  0.25000000  0.75000000  1
  Co  Co1  1  0.75000000  0.50000000  0.00000000  1
  Co  Co1  1  0.75000000  0.50000000  0.25000000  1
  Co  Co1  1  0.75000000  0.50000000  0.50000000  1
  Co  Co1  1  0.75000000  0.50000000  0.75000000  1
  Co  Co1  1  0.75000000  0.75000000  0.00000000  1
  Co  Co1  1  0.75000000  0.75000000  0.25000000  1
  Co  Co1  1  0.75000000  0.75000000  0.50000000  1
  Co  Co1  1  0.75000000  0.75000000  0.75000000  1
  Co  Co1  1  0.00000000  0.06250000  0.06250000  1
  Co  Co1  1  0.00000000  0.06250000  0.31250000  1
  Co  Co1  1  0.00000000  0.06250000  0.56250000  1
  Co  Co1  1  0.00000000  0.06250000  0.81250000  1
  Co  Co1  1  0.00000000  0.31250000  0.06250000  1
  Co  Co1  1  0.00000000  0.31250000  0.31250000  1
  Co  Co1  1  0.00000000  0.31250000  0.56250000  1
  Co  Co1  1  0.00000000  0.31250000  0.81250000  1
  Co  Co1  1  0.00000000  0.56250000  0.06250000  1
  Co  Co1  1  0.00000000  0.56250000  0.31250000  1
  Co  Co1  1  0.00000000  0.56250000  0.56250000  1
  Co  Co1  1  0.00000000  0.56250000  0.81250000  1
  Co  Co1  1  0.00000000  0.81250000  0.06250000  1
  Co  Co1  1  0.00000000  0.81250000  0.31250000  1
  Co  Co1  1  0.00000000  0.81250000  0.56250000  1
  Co  Co1  1  0.00000000  0.81250000  0.81250000  1
  Co  Co1  1  0.25000000  0.06250000  0.06250000  1
  Co  Co1  1  0.25000000  0.06250000  0.31250000  1
  Co  Co1  1  0.25000000  0.06250000  0.56250000  1
  Co  Co1  1  0.25000000  0.06250000  0.81250000  1
  Co  Co1  1  0.25000000  0.31250000  0.06250000  1
  Co  Co1  1  0.25000000  0.31250000  0.31250000  1
  Co  Co1  1  0.25000000  0.31250000  0.56250000  1
  Co  Co1  1  0.25000000  0.31250000  0.81250000  1
  Co  Co1  1  0.25000000  0.56250000  0.06250000  1
  Co  Co1  1  0.25000000  0.56250000  0.31250000  1
  Co  Co1  1  0.25000000  0.56250000  0.56250000  1
  Co  Co1  1  0.25000000  0.56250000  0.81250000  1
  Co  Co1  1  0.25000000  0.81250000  0.06250000  1
  Co  Co1  1  0.25000000  0.81250000  0.31250000  1
  Co  Co1  1  0.25000000  0.81250000  0.56250000  1
  Co  Co1  1  0.25000000  0.81250000  0.81250000  1
  Co  Co1  1  0.50000000  0.06250000  0.06250000  1
  Co  Co1  1  0.50000000  0.06250000  0.31250000  1
  Co  Co1  1  0.50000000  0.06250000  0.56250000  1
  Co  Co1  1  0.50000000  0.06250000  0.81250000  1
  Co  Co1  1  0.50000000  0.31250000  0.06250000  1
  Co  Co1  1  0.50000000  0.31250000  0.31250000  1
  Co  Co1  1  0.50000000  0.31250000  0.56250000  1
  Co  Co1  1  0.50000000  0.31250000  0.81250000  1
  Co  Co1  1  0.50000000  0.56250000  0.06250000  1
  Co  Co1  1  0.50000000  0.56250000  0.31250000  1
  Co  Co1  1  0.50000000  0.56250000  0.56250000  1
  Co  Co1  1  0.50000000  0.56250000  0.81250000  1
  Co  Co1  1  0.50000000  0.81250000  0.06250000  1
  Co  Co1  1  0.50000000  0.81250000  0.31250000  1
  Co  Co1  1  0.50000000  0.81250000  0.56250000  1
  Co  Co1  1  0.50000000  0.81250000  0.81250000  1
  Co  Co1  1  0.75000000  0.06250000  0.06250000  1
  Co  Co1  1  0.75000000  0.06250000  0.31250000  1
  Co  Co1  1  0.75000000  0.06250000  0.56250000  1
  Co  Co1  1  0.75000000  0.06250000  0.81250000  1
  Co  Co1  1  0.75000000  0.31250000  0.06250000  1
  Co  Co1  1  0.75000000  0.31250000  0.31250000  1
  Co  Co1  1  0.75000000  0.31250000  0.56250000  1
  Co  Co1  1  0.75000000  0.31250000  0.81250000  1
  Co  Co1  1  0.75000000  0.56250000  0.06250000  1
  Co  Co1  1  0.75000000  0.56250000  0.31250000  1
  Co  Co1  1  0.75000000  0.56250000  0.56250000  1
  Co  Co1  1  0.75000000  0.56250000  0.81250000  1
  Co  Co1  1  0.75000000  0.81250000  0.06250000  1
  Co  Co1  1  0.75000000  0.81250000  0.31250000  1
  Co  Co1  1  0.75000000  0.81250000  0.56250000  1
  Co  Co1  1  0.75000000  0.81250000  0.81250000  1
  Co  Co1  1  0.18750000  0.06250000  0.12500000  1
  Co  Co1  1  0.18750000  0.06250000  0.37500000  1
  Co  Co1  1  0.18750000  0.06250000  0.62500000  1
  Co  Co1  1  0.18750000  0.06250000  0.87500000  1
  Co  Co1  1  0.18750000  0.31250000  0.12500000  1
  Co  Co1  1  0.18750000  0.31250000  0.37500000  1
  Co  Co1  1  0.18750000  0.31250000  0.62500000  1
  Co  Co1  1  0.18750000  0.31250000  0.87500000  1
  Co  Co1  1  0.18750000  0.56250000  0.12500000  1
  Co  Co1  1  0.18750000  0.56250000  0.37500000  1
  Co  Co1  1  0.18750000  0.56250000  0.62500000  1
  Co  Co1  1  0.18750000  0.56250000  0.87500000  1
  Co  Co1  1  0.18750000  0.81250000  0.12500000  1
  Co  Co1  1  0.18750000  0.81250000  0.37500000  1
  Co  Co1  1  0.18750000  0.81250000  0.62500000  1
  Co  Co1  1  0.18750000  0.81250000  0.87500000  1
  Co  Co1  1  0.43750000  0.06250000  0.12500000  1
  Co  Co1  1  0.43750000  0.06250000  0.37500000  1
  Co  Co1  1  0.43750000  0.06250000  0.62500000  1
  Co  Co1  1  0.43750000  0.06250000  0.87500000  1
  Co  Co1  1  0.43750000  0.31250000  0.12500000  1
  Co  Co1  1  0.43750000  0.31250000  0.37500000  1
  Co  Co1  1  0.43750000  0.31250000  0.62500000  1
  Co  Co1  1  0.43750000  0.31250000  0.87500000  1
  Co  Co1  1  0.43750000  0.56250000  0.12500000  1
  Co  Co1  1  0.43750000  0.56250000  0.37500000  1
  Co  Co1  1  0.43750000  0.56250000  0.62500000  1
  Co  Co1  1  0.43750000  0.56250000  0.87500000  1
  Co  Co1  1  0.43750000  0.81250000  0.12500000  1
  Co  Co1  1  0.43750000  0.81250000  0.37500000  1
  Co  Co1  1  0.43750000  0.81250000  0.62500000  1
  Co  Co1  1  0.43750000  0.81250000  0.87500000  1
  Co  Co1  1  0.68750000  0.06250000  0.12500000  1
  Co  Co1  1  0.68750000  0.06250000  0.37500000  1
  Co  Co1  1  0.68750000  0.06250000  0.62500000  1
  Co  Co1  1  0.68750000  0.06250000  0.87500000  1
  Co  Co1  1  0.68750000  0.31250000  0.12500000  1
  Co  Co1  1  0.68750000  0.31250000  0.37500000  1
  Co  Co1  1  0.68750000  0.31250000  0.62500000  1
  Co  Co1  1  0.68750000  0.31250000  0.87500000  1
  Co  Co1  1  0.68750000  0.56250000  0.12500000  1
  Co  Co1  1  0.68750000  0.56250000  0.37500000  1
  Co  Co1  1  0.68750000  0.56250000  0.62500000  1
  Co  Co1  1  0.68750000  0.56250000  0.87500000  1
  Co  Co1  1  0.68750000  0.81250000  0.12500000  1
  Co  Co1  1  0.68750000  0.81250000  0.37500000  1
  Co  Co1  1  0.68750000  0.81250000  0.62500000  1
  Co  Co1  1  0.68750000  0.81250000  0.87500000  1
  Co  Co1  1  0.93750000  0.06250000  0.12500000  1
  Co  Co1  1  0.93750000  0.06250000  0.37500000  1
  Co  Co1  1  0.93750000  0.06250000  0.62500000  1
  Co  Co1  1  0.93750000  0.06250000  0.87500000  1
  Co  Co1  1  0.93750000  0.31250000  0.12500000  1
  Co  Co1  1  0.93750000  0.31250000  0.37500000  1
  Co  Co1  1  0.93750000  0.31250000  0.62500000  1
  Co  Co1  1  0.93750000  0.31250000  0.87500000  1
  Co  Co1  1  0.93750000  0.56250000  0.12500000  1
  Co  Co1  1  0.93750000  0.56250000  0.37500000  1
  Co  Co1  1  0.93750000  0.56250000  0.62500000  1
  Co  Co1  1  0.93750000  0.56250000  0.87500000  1
  Co  Co1  1  0.93750000  0.81250000  0.12500000  1
  Co  Co1  1  0.93750000  0.81250000  0.37500000  1
  Co  Co1  1  0.93750000  0.81250000  0.62500000  1
  Co  Co1  1  0.93750000  0.81250000  0.87500000  1
  Co  Co1  1  0.18750000  0.00000000  0.18750000  1
  Co  Co1  1  0.18750000  0.00000000  0.43750000  1
  Co  Co1  1  0.18750000  0.00000000  0.68750000  1
  Co  Co1  1  0.18750000  0.00000000  0.93750000  1
  Co  Co1  1  0.18750000  0.25000000  0.18750000  1
  Co  Co1  1  0.18750000  0.25000000  0.43750000  1
  Co  Co1  1  0.18750000  0.25000000  0.68750000  1
  Co  Co1  1  0.18750000  0.25000000  0.93750000  1
  Co  Co1  1  0.18750000  0.50000000  0.18750000  1
  Co  Co1  1  0.18750000  0.50000000  0.43750000  1
  Co  Co1  1  0.18750000  0.50000000  0.68750000  1
  Co  Co1  1  0.18750000  0.50000000  0.93750000  1
  Co  Co1  1  0.18750000  0.75000000  0.18750000  1
  Co  Co1  1  0.18750000  0.75000000  0.43750000  1
  Co  Co1  1  0.18750000  0.75000000  0.68750000  1
  Co  Co1  1  0.18750000  0.75000000  0.93750000  1
  Co  Co1  1  0.43750000  0.00000000  0.18750000  1
  Co  Co1  1  0.43750000  0.00000000  0.43750000  1
  Co  Co1  1  0.43750000  0.00000000  0.68750000  1
  Co  Co1  1  0.43750000  0.00000000  0.93750000  1
  Co  Co1  1  0.43750000  0.25000000  0.18750000  1
  Co  Co1  1  0.43750000  0.25000000  0.43750000  1
  Co  Co1  1  0.43750000  0.25000000  0.68750000  1
  Co  Co1  1  0.43750000  0.25000000  0.93750000  1
  Co  Co1  1  0.43750000  0.50000000  0.18750000  1
  Co  Co1  1  0.43750000  0.50000000  0.43750000  1
  Co  Co1  1  0.43750000  0.50000000  0.68750000  1
  Co  Co1  1  0.43750000  0.50000000  0.93750000  1
  Co  Co1  1  0.43750000  0.75000000  0.18750000  1
  Co  Co1  1  0.43750000  0.75000000  0.43750000  1
  Co  Co1  1  0.43750000  0.75000000  0.68750000  1
  Co  Co1  1  0.43750000  0.75000000  0.93750000  1
  Co  Co1  1  0.68750000  0.00000000  0.18750000  1
  Co  Co1  1  0.68750000  0.00000000  0.43750000  1
  Co  Co1  1  0.68750000  0.00000000  0.68750000  1
  Co  Co1  1  0.68750000  0.00000000  0.93750000  1
  Co  Co1  1  0.68750000  0.25000000  0.18750000  1
  Co  Co1  1  0.68750000  0.25000000  0.43750000  1
  Co  Co1  1  0.68750000  0.25000000  0.68750000  1
  Co  Co1  1  0.68750000  0.25000000  0.93750000  1
  Co  Co1  1  0.68750000  0.50000000  0.18750000  1
  Co  Co1  1  0.68750000  0.50000000  0.43750000  1
  Co  Co1  1  0.68750000  0.50000000  0.68750000  1
  Co  Co1  1  0.68750000  0.50000000  0.93750000  1
  Co  Co1  1  0.68750000  0.75000000  0.18750000  1
  Co  Co1  1  0.68750000  0.75000000  0.43750000  1
  Co  Co1  1  0.68750000  0.75000000  0.68750000  1
  Co  Co1  1  0.68750000  0.75000000  0.93750000  1
  Co  Co1  1  0.93750000  0.00000000  0.18750000  1
  Co  Co1  1  0.93750000  0.00000000  0.43750000  1
  Co  Co1  1  0.93750000  0.00000000  0.68750000  1
  Co  Co1  1  0.93750000  0.00000000  0.93750000  1
  Co  Co1  1  0.93750000  0.25000000  0.18750000  1
  Co  Co1  1  0.93750000  0.25000000  0.43750000  1
  Co  Co1  1  0.93750000  0.25000000  0.68750000  1
  Co  Co1  1  0.93750000  0.25000000  0.93750000  1
  Co  Co1  1  0.93750000  0.50000000  0.18750000  1
  Co  Co1  1  0.93750000  0.50000000  0.43750000  1
  Co  Co1  1  0.93750000  0.50000000  0.68750000  1
  Co  Co1  1  0.93750000  0.50000000  0.93750000  1
  Co  Co1  1  0.93750000  0.75000000  0.18750000  1
  Co  Co1  1  0.93750000  0.75000000  0.43750000  1
  Co  Co1  1  0.93750000  0.75000000  0.68750000  1
  Co  Co1  1  0.93750000  0.75000000  0.93750000  1
  Co  Co1  1  0.12500000  0.18750000  0.06250000  1
  Co  Co1  1  0.12500000  0.18750000  0.31250000  1
  Co  Co1  1  0.12500000  0.18750000  0.56250000  1
  Co  Co1  1  0.12500000  0.18750000  0.81250000  1
  Co  Co1  1  0.12500000  0.43750000  0.06250000  1
  Co  Co1  1  0.12500000  0.43750000  0.31250000  1
  Co  Co1  1  0.12500000  0.43750000  0.56250000  1
  Co  Co1  1  0.12500000  0.43750000  0.81250000  1
  Co  Co1  1  0.12500000  0.68750000  0.06250000  1
  Co  Co1  1  0.12500000  0.68750000  0.31250000  1
  Co  Co1  1  0.12500000  0.68750000  0.56250000  1
  Co  Co1  1  0.12500000  0.68750000  0.81250000  1
  Co  Co1  1  0.12500000  0.93750000  0.06250000  1
  Co  Co1  1  0.12500000  0.93750000  0.31250000  1
  Co  Co1  1  0.12500000  0.93750000  0.56250000  1
  Co  Co1  1  0.12500000  0.93750000  0.81250000  1
  Co  Co1  1  0.37500000  0.18750000  0.06250000  1
  Co  Co1  1  0.37500000  0.18750000  0.31250000  1
  Co  Co1  1  0.37500000  0.18750000  0.56250000  1
  Co  Co1  1  0.37500000  0.18750000  0.81250000  1
  Co  Co1  1  0.37500000  0.43750000  0.06250000  1
  Co  Co1  1  0.37500000  0.43750000  0.31250000  1
  Co  Co1  1  0.37500000  0.43750000  0.56250000  1
  Co  Co1  1  0.37500000  0.43750000  0.81250000  1
  Co  Co1  1  0.37500000  0.68750000  0.06250000  1
  Co  Co1  1  0.37500000  0.68750000  0.31250000  1
  Co  Co1  1  0.37500000  0.68750000  0.56250000  1
  Co  Co1  1  0.37500000  0.68750000  0.81250000  1
  Co  Co1  1  0.37500000  0.93750000  0.06250000  1
  Co  Co1  1  0.37500000  0.93750000  0.31250000  1
  Co  Co1  1  0.37500000  0.93750000  0.56250000  1
  Co  Co1  1  0.37500000  0.93750000  0.81250000  1
  Co  Co1  1  0.62500000  0.18750000  0.06250000  1
  Co  Co1  1  0.62500000  0.18750000  0.31250000  1
  Co  Co1  1  0.62500000  0.18750000  0.56250000  1
  Co  Co1  1  0.62500000  0.18750000  0.81250000  1
  Co  Co1  1  0.62500000  0.43750000  0.06250000  1
  Co  Co1  1  0.62500000  0.43750000  0.31250000  1
  Co  Co1  1  0.62500000  0.43750000  0.56250000  1
  Co  Co1  1  0.62500000  0.43750000  0.81250000  1
  Co  Co1  1  0.62500000  0.68750000  0.06250000  1
  Co  Co1  1  0.62500000  0.68750000  0.31250000  1
  Co  Co1  1  0.62500000  0.68750000  0.56250000  1
  Co  Co1  1  0.62500000  0.68750000  0.81250000  1
  Co  Co1  1  0.62500000  0.93750000  0.06250000  1
  Co  Co1  1  0.62500000  0.93750000  0.31250000  1
  Co  Co1  1  0.62500000  0.93750000  0.56250000  1
  Co  Co1  1  0.62500000  0.93750000  0.81250000  1
  Co  Co1  1  0.87500000  0.18750000  0.06250000  1
  Co  Co1  1  0.87500000  0.18750000  0.31250000  1
  Co  Co1  1  0.87500000  0.18750000  0.56250000  1
  Co  Co1  1  0.87500000  0.18750000  0.81250000  1
  Co  Co1  1  0.87500000  0.43750000  0.06250000  1
  Co  Co1  1  0.87500000  0.43750000  0.31250000  1
  Co  Co1  1  0.87500000  0.43750000  0.56250000  1
  Co  Co1  1  0.87500000  0.43750000  0.81250000  1
  Co  Co1  1  0.87500000  0.68750000  0.06250000  1
  Co  Co1  1  0.87500000  0.68750000  0.31250000  1
  Co  Co1  1  0.87500000  0.68750000  0.56250000  1
  Co  Co1  1  0.87500000  0.68750000  0.81250000  1
  Co  Co1  1  0.87500000  0.93750000  0.06250000  1
  Co  Co1  1  0.87500000  0.93750000  0.31250000  1
  Co  Co1  1  0.87500000  0.93750000  0.56250000  1
  Co  Co1  1  0.87500000  0.93750000  0.81250000  1
  Co  Co1  1  0.06250000  0.18750000  0.12500000  1
  Co  Co1  1  0.06250000  0.18750000  0.37500000  1
  Co  Co1  1  0.06250000  0.18750000  0.62500000  1
  Co  Co1  1  0.06250000  0.18750000  0.87500000  1
  Co  Co1  1  0.06250000  0.43750000  0.12500000  1
  Co  Co1  1  0.06250000  0.43750000  0.37500000  1
  Co  Co1  1  0.06250000  0.43750000  0.62500000  1
  Co  Co1  1  0.06250000  0.43750000  0.87500000  1
  Co  Co1  1  0.06250000  0.68750000  0.12500000  1
  Co  Co1  1  0.06250000  0.68750000  0.37500000  1
  Co  Co1  1  0.06250000  0.68750000  0.62500000  1
  Co  Co1  1  0.06250000  0.68750000  0.87500000  1
  Co  Co1  1  0.06250000  0.93750000  0.12500000  1
  Co  Co1  1  0.06250000  0.93750000  0.37500000  1
  Co  Co1  1  0.06250000  0.93750000  0.62500000  1
  Co  Co1  1  0.06250000  0.93750000  0.87500000  1
  Co  Co1  1  0.31250000  0.18750000  0.12500000  1
  Co  Co1  1  0.31250000  0.18750000  0.37500000  1
  Co  Co1  1  0.31250000  0.18750000  0.62500000  1
  Co  Co1  1  0.31250000  0.18750000  0.87500000  1
  Co  Co1  1  0.31250000  0.43750000  0.12500000  1
  Co  Co1  1  0.31250000  0.43750000  0.37500000  1
  Co  Co1  1  0.31250000  0.43750000  0.62500000  1
  Co  Co1  1  0.31250000  0.43750000  0.87500000  1
  Co  Co1  1  0.31250000  0.68750000  0.12500000  1
  Co  Co1  1  0.31250000  0.68750000  0.37500000  1
  Co  Co1  1  0.31250000  0.68750000  0.62500000  1
  Co  Co1  1  0.31250000  0.68750000  0.87500000  1
  Co  Co1  1  0.31250000  0.93750000  0.12500000  1
  Co  Co1  1  0.31250000  0.93750000  0.37500000  1
  Co  Co1  1  0.31250000  0.93750000  0.62500000  1
  Co  Co1  1  0.31250000  0.93750000  0.87500000  1
  Co  Co1  1  0.56250000  0.18750000  0.12500000  1
  Co  Co1  1  0.56250000  0.18750000  0.37500000  1
  Co  Co1  1  0.56250000  0.18750000  0.62500000  1
  Co  Co1  1  0.56250000  0.18750000  0.87500000  1
  Co  Co1  1  0.56250000  0.43750000  0.12500000  1
  Co  Co1  1  0.56250000  0.43750000  0.37500000  1
  Co  Co1  1  0.56250000  0.43750000  0.62500000  1
  Co  Co1  1  0.56250000  0.43750000  0.87500000  1
  Co  Co1  1  0.56250000  0.68750000  0.12500000  1
  Co  Co1  1  0.56250000  0.68750000  0.37500000  1
  Co  Co1  1  0.56250000  0.68750000  0.62500000  1
  Co  Co1  1  0.56250000  0.68750000  0.87500000  1
  Co  Co1  1  0.56250000  0.93750000  0.12500000  1
  Co  Co1  1  0.56250000  0.93750000  0.37500000  1
  Co  Co1  1  0.56250000  0.93750000  0.62500000  1
  Co  Co1  1  0.56250000  0.93750000  0.87500000  1
  Co  Co1  1  0.81250000  0.18750000  0.12500000  1
  Co  Co1  1  0.81250000  0.18750000  0.37500000  1
  Co  Co1  1  0.81250000  0.18750000  0.62500000  1
  Co  Co1  1  0.81250000  0.18750000  0.87500000  1
  Co  Co1  1  0.81250000  0.43750000  0.12500000  1
  Co  Co1  1  0.81250000  0.43750000  0.37500000  1
  Co  Co1  1  0.81250000  0.43750000  0.62500000  1
  Co  Co1  1  0.81250000  0.43750000  0.87500000  1
  Co  Co1  1  0.81250000  0.68750000  0.12500000  1
  Co  Co1  1  0.81250000  0.68750000  0.37500000  1
  Co  Co1  1  0.81250000  0.68750000  0.62500000  1
  Co  Co1  1  0.81250000  0.68750000  0.87500000  1
  Co  Co1  1  0.81250000  0.93750000  0.12500000  1
  Co  Co1  1  0.81250000  0.93750000  0.37500000  1
  Co  Co1  1  0.81250000  0.93750000  0.62500000  1
  Co  Co1  1  0.81250000  0.93750000  0.87500000  1
  Co  Co1  1  0.06250000  0.12500000  0.18750000  1
  Co  Co1  1  0.06250000  0.12500000  0.43750000  1
  Co  Co1  1  0.06250000  0.12500000  0.68750000  1
  Co  Co1  1  0.06250000  0.12500000  0.93750000  1
  Co  Co1  1  0.06250000  0.37500000  0.18750000  1
  Co  Co1  1  0.06250000  0.37500000  0.43750000  1
  Co  Co1  1  0.06250000  0.37500000  0.68750000  1
  Co  Co1  1  0.06250000  0.37500000  0.93750000  1
  Co  Co1  1  0.06250000  0.62500000  0.18750000  1
  Co  Co1  1  0.06250000  0.62500000  0.43750000  1
  Co  Co1  1  0.06250000  0.62500000  0.68750000  1
  Co  Co1  1  0.06250000  0.62500000  0.93750000  1
  Co  Co1  1  0.06250000  0.87500000  0.18750000  1
  Co  Co1  1  0.06250000  0.87500000  0.43750000  1
  Co  Co1  1  0.06250000  0.87500000  0.68750000  1
  Co  Co1  1  0.06250000  0.87500000  0.93750000  1
  Co  Co1  1  0.31250000  0.12500000  0.18750000  1
  Co  Co1  1  0.31250000  0.12500000  0.43750000  1
  Co  Co1  1  0.31250000  0.12500000  0.68750000  1
  Co  Co1  1  0.31250000  0.12500000  0.93750000  1
  Co  Co1  1  0.31250000  0.37500000  0.18750000  1
  Co  Co1  1  0.31250000  0.37500000  0.43750000  1
  Co  Co1  1  0.31250000  0.37500000  0.68750000  1
  Co  Co1  1  0.31250000  0.37500000  0.93750000  1
  Co  Co1  1  0.31250000  0.62500000  0.18750000  1
  Co  Co1  1  0.31250000  0.62500000  0.43750000  1
  Co  Co1  1  0.31250000  0.62500000  0.68750000  1
  Co  Co1  1  0.31250000  0.62500000  0.93750000  1
  Co  Co1  1  0.31250000  0.87500000  0.18750000  1
  Co  Co1  1  0.31250000  0.87500000  0.43750000  1
  Co  Co1  1  0.31250000  0.87500000  0.68750000  1
  Co  Co1  1  0.31250000  0.87500000  0.93750000  1
  Co  Co1  1  0.56250000  0.12500000  0.18750000  1
  Co  Co1  1  0.56250000  0.12500000  0.43750000  1
  Co  Co1  1  0.56250000  0.12500000  0.68750000  1
  Co  Co1  1  0.56250000  0.12500000  0.93750000  1
  Co  Co1  1  0.56250000  0.37500000  0.18750000  1
  Co  Co1  1  0.56250000  0.37500000  0.43750000  1
  Co  Co1  1  0.56250000  0.37500000  0.68750000  1
  Co  Co1  1  0.56250000  0.37500000  0.93750000  1
  Co  Co1  1  0.56250000  0.62500000  0.18750000  1
  Co  Co1  1  0.56250000  0.62500000  0.43750000  1
  Co  Co1  1  0.56250000  0.62500000  0.68750000  1
  Co  Co1  1  0.56250000  0.62500000  0.93750000  1
  Co  Co1  1  0.56250000  0.87500000  0.18750000  1
  Co  Co1  1  0.56250000  0.87500000  0.43750000  1
  Co  Co1  1  0.56250000  0.87500000  0.68750000  1
  Co  Co1  1  0.56250000  0.87500000  0.93750000  1
  Co  Co1  1  0.81250000  0.12500000  0.18750000  1
  Co  Co1  1  0.81250000  0.12500000  0.43750000  1
  Co  Co1  1  0.81250000  0.12500000  0.68750000  1
  Co  Co1  1  0.81250000  0.12500000  0.93750000  1
  Co  Co1  1  0.81250000  0.37500000  0.18750000  1
  Co  Co1  1  0.81250000  0.37500000  0.43750000  1
  Co  Co1  1  0.81250000  0.37500000  0.68750000  1
  Co  Co1  1  0.81250000  0.37500000  0.93750000  1
  Co  Co1  1  0.81250000  0.62500000  0.18750000  1
  Co  Co1  1  0.81250000  0.62500000  0.43750000  1
  Co  Co1  1  0.81250000  0.62500000  0.68750000  1
  Co  Co1  1  0.81250000  0.62500000  0.93750000  1
  Co  Co1  1  0.81250000  0.87500000  0.18750000  1
  Co  Co1  1  0.81250000  0.87500000  0.43750000  1
  Co  Co1  1  0.81250000  0.87500000  0.68750000  1
  Co  Co1  1  0.81250000  0.87500000  0.93750000  1
  Co  Co1  1  0.00000000  0.12500000  0.12500000  1
  Co  Co1  1  0.00000000  0.12500000  0.37500000  1
  Co  Co1  1  0.00000000  0.12500000  0.62500000  1
  Co  Co1  1  0.00000000  0.12500000  0.87500000  1
  Co  Co1  1  0.00000000  0.37500000  0.12500000  1
  Co  Co1  1  0.00000000  0.37500000  0.37500000  1
  Co  Co1  1  0.00000000  0.37500000  0.62500000  1
  Co  Co1  1  0.00000000  0.37500000  0.87500000  1
  Co  Co1  1  0.00000000  0.62500000  0.12500000  1
  Co  Co1  1  0.00000000  0.62500000  0.37500000  1
  Co  Co1  1  0.00000000  0.62500000  0.62500000  1
  Co  Co1  1  0.00000000  0.62500000  0.87500000  1
  Co  Co1  1  0.00000000  0.87500000  0.12500000  1
  Co  Co1  1  0.00000000  0.87500000  0.37500000  1
  Co  Co1  1  0.00000000  0.87500000  0.62500000  1
  Co  Co1  1  0.00000000  0.87500000  0.87500000  1
  Co  Co1  1  0.25000000  0.12500000  0.12500000  1
  Co  Co1  1  0.25000000  0.12500000  0.37500000  1
  Co  Co1  1  0.25000000  0.12500000  0.62500000  1
  Co  Co1  1  0.25000000  0.12500000  0.87500000  1
  Co  Co1  1  0.25000000  0.37500000  0.12500000  1
  Co  Co1  1  0.25000000  0.37500000  0.37500000  1
  Co  Co1  1  0.25000000  0.37500000  0.62500000  1
  Co  Co1  1  0.25000000  0.37500000  0.87500000  1
  Co  Co1  1  0.25000000  0.62500000  0.12500000  1
  Co  Co1  1  0.25000000  0.62500000  0.37500000  1
  Co  Co1  1  0.25000000  0.62500000  0.62500000  1
  Co  Co1  1  0.25000000  0.62500000  0.87500000  1
  Co  Co1  1  0.25000000  0.87500000  0.12500000  1
  Co  Co1  1  0.25000000  0.87500000  0.37500000  1
  Co  Co1  1  0.25000000  0.87500000  0.62500000  1
  Co  Co1  1  0.25000000  0.87500000  0.87500000  1
  Co  Co1  1  0.50000000  0.12500000  0.12500000  1
  Co  Co1  1  0.50000000  0.12500000  0.37500000  1
  Co  Co1  1  0.50000000  0.12500000  0.62500000  1
  Co  Co1  1  0.50000000  0.12500000  0.87500000  1
  Co  Co1  1  0.50000000  0.37500000  0.12500000  1
  Co  Co1  1  0.50000000  0.37500000  0.37500000  1
  Co  Co1  1  0.50000000  0.37500000  0.62500000  1
  Co  Co1  1  0.50000000  0.37500000  0.87500000  1
  Co  Co1  1  0.50000000  0.62500000  0.12500000  1
  Co  Co1  1  0.50000000  0.62500000  0.37500000  1
  Co  Co1  1  0.50000000  0.62500000  0.62500000  1
  Co  Co1  1  0.50000000  0.62500000  0.87500000  1
  Co  Co1  1  0.50000000  0.87500000  0.12500000  1
  Co  Co1  1  0.50000000  0.87500000  0.37500000  1
  Co  Co1  1  0.50000000  0.87500000  0.62500000  1
  Co  Co1  1  0.50000000  0.87500000  0.87500000  1
  Co  Co1  1  0.75000000  0.12500000  0.12500000  1
  Co  Co1  1  0.75000000  0.12500000  0.37500000  1
  Co  Co1  1  0.75000000  0.12500000  0.62500000  1
  Co  Co1  1  0.75000000  0.12500000  0.87500000  1
  Co  Co1  1  0.75000000  0.37500000  0.12500000  1
  Co  Co1  1  0.75000000  0.37500000  0.37500000  1
  Co  Co1  1  0.75000000  0.37500000  0.62500000  1
  Co  Co1  1  0.75000000  0.37500000  0.87500000  1
  Co  Co1  1  0.75000000  0.62500000  0.12500000  1
  Co  Co1  1  0.75000000  0.62500000  0.37500000  1
  Co  Co1  1  0.75000000  0.62500000  0.62500000  1
  Co  Co1  1  0.75000000  0.62500000  0.87500000  1
  Co  Co1  1  0.75000000  0.87500000  0.12500000  1
  Co  Co1  1  0.75000000  0.87500000  0.37500000  1
  Co  Co1  1  0.75000000  0.87500000  0.62500000  1
  Co  Co1  1  0.75000000  0.87500000  0.87500000  1
  Co  Co1  1  0.06250000  0.06250000  0.00000000  1
  Co  Co1  1  0.06250000  0.06250000  0.25000000  1
  Co  Co1  1  0.06250000  0.06250000  0.50000000  1
  Co  Co1  1  0.06250000  0.06250000  0.75000000  1
  Co  Co1  1  0.06250000  0.31250000  0.00000000  1
  Co  Co1  1  0.06250000  0.31250000  0.25000000  1
  Co  Co1  1  0.06250000  0.31250000  0.50000000  1
  Co  Co1  1  0.06250000  0.31250000  0.75000000  1
  Co  Co1  1  0.06250000  0.56250000  0.00000000  1
  Co  Co1  1  0.06250000  0.56250000  0.25000000  1
  Co  Co1  1  0.06250000  0.56250000  0.50000000  1
  Co  Co1  1  0.06250000  0.56250000  0.75000000  1
  Co  Co1  1  0.06250000  0.81250000  0.00000000  1
  Co  Co1  1  0.06250000  0.81250000  0.25000000  1
  Co  Co1  1  0.06250000  0.81250000  0.50000000  1
  Co  Co1  1  0.06250000  0.81250000  0.75000000  1
  Co  Co1  1  0.31250000  0.06250000  0.00000000  1
  Co  Co1  1  0.31250000  0.06250000  0.25000000  1
  Co  Co1  1  0.31250000  0.06250000  0.50000000  1
  Co  Co1  1  0.31250000  0.06250000  0.75000000  1
  Co  Co1  1  0.31250000  0.31250000  0.00000000  1
  Co  Co1  1  0.31250000  0.31250000  0.25000000  1
  Co  Co1  1  0.31250000  0.31250000  0.50000000  1
  Co  Co1  1  0.31250000  0.31250000  0.75000000  1
  Co  Co1  1  0.31250000  0.56250000  0.00000000  1
  Co  Co1  1  0.31250000  0.56250000  0.25000000  1
  Co  Co1  1  0.31250000  0.56250000  0.50000000  1
  Co  Co1  1  0.31250000  0.56250000  0.75000000  1
  Co  Co1  1  0.31250000  0.81250000  0.00000000  1
  Co  Co1  1  0.31250000  0.81250000  0.25000000  1
  Co  Co1  1  0.31250000  0.81250000  0.50000000  1
  Co  Co1  1  0.31250000  0.81250000  0.75000000  1
  Co  Co1  1  0.56250000  0.06250000  0.00000000  1
  Co  Co1  1  0.56250000  0.06250000  0.25000000  1
  Co  Co1  1  0.56250000  0.06250000  0.50000000  1
  Co  Co1  1  0.56250000  0.06250000  0.75000000  1
  Co  Co1  1  0.56250000  0.31250000  0.00000000  1
  Co  Co1  1  0.56250000  0.31250000  0.25000000  1
  Co  Co1  1  0.56250000  0.31250000  0.50000000  1
  Co  Co1  1  0.56250000  0.31250000  0.75000000  1
  Co  Co1  1  0.56250000  0.56250000  0.00000000  1
  Co  Co1  1  0.56250000  0.56250000  0.25000000  1
  Co  Co1  1  0.56250000  0.56250000  0.50000000  1
  Co  Co1  1  0.56250000  0.56250000  0.75000000  1
  Co  Co1  1  0.56250000  0.81250000  0.00000000  1
  Co  Co1  1  0.56250000  0.81250000  0.25000000  1
  Co  Co1  1  0.56250000  0.81250000  0.50000000  1
  Co  Co1  1  0.56250000  0.81250000  0.75000000  1
  Co  Co1  1  0.81250000  0.06250000  0.00000000  1
  Co  Co1  1  0.81250000  0.06250000  0.25000000  1
  Co  Co1  1  0.81250000  0.06250000  0.50000000  1
  Co  Co1  1  0.81250000  0.06250000  0.75000000  1
  Co  Co1  1  0.81250000  0.31250000  0.00000000  1
  Co  Co1  1  0.81250000  0.31250000  0.25000000  1
  Co  Co1  1  0.81250000  0.31250000  0.50000000  1
  Co  Co1  1  0.81250000  0.31250000  0.75000000  1
  Co  Co1  1  0.81250000  0.56250000  0.00000000  1
  Co  Co1  1  0.81250000  0.56250000  0.25000000  1
  Co  Co1  1  0.81250000  0.56250000  0.50000000  1
  Co  Co1  1  0.81250000  0.56250000  0.75000000  1
  Co  Co1  1  0.81250000  0.81250000  0.00000000  1
  Co  Co1  1  0.81250000  0.81250000  0.25000000  1
  Co  Co1  1  0.81250000  0.81250000  0.50000000  1
  Co  Co1  1  0.81250000  0.81250000  0.75000000  1
  Co  Co1  1  0.06250000  0.00000000  0.06250000  1
  Co  Co1  1  0.06250000  0.00000000  0.31250000  1
  Co  Co1  1  0.06250000  0.00000000  0.56250000  1
  Co  Co1  1  0.06250000  0.00000000  0.81250000  1
  Co  Co1  1  0.06250000  0.25000000  0.06250000  1
  Co  Co1  1  0.06250000  0.25000000  0.31250000  1
  Co  Co1  1  0.06250000  0.25000000  0.56250000  1
  Co  Co1  1  0.06250000  0.25000000  0.81250000  1
  Co  Co1  1  0.06250000  0.50000000  0.06250000  1
  Co  Co1  1  0.06250000  0.50000000  0.31250000  1
  Co  Co1  1  0.06250000  0.50000000  0.56250000  1
  Co  Co1  1  0.06250000  0.50000000  0.81250000  1
  Co  Co1  1  0.06250000  0.75000000  0.06250000  1
  Co  Co1  1  0.06250000  0.75000000  0.31250000  1
  Co  Co1  1  0.06250000  0.75000000  0.56250000  1
  Co  Co1  1  0.06250000  0.75000000  0.81250000  1
  Co  Co1  1  0.31250000  0.00000000  0.06250000  1
  Co  Co1  1  0.31250000  0.00000000  0.31250000  1
  Co  Co1  1  0.31250000  0.00000000  0.56250000  1
  Co  Co1  1  0.31250000  0.00000000  0.81250000  1
  Co  Co1  1  0.31250000  0.25000000  0.06250000  1
  Co  Co1  1  0.31250000  0.25000000  0.31250000  1
  Co  Co1  1  0.31250000  0.25000000  0.56250000  1
  Co  Co1  1  0.31250000  0.25000000  0.81250000  1
  Co  Co1  1  0.31250000  0.50000000  0.06250000  1
  Co  Co1  1  0.31250000  0.50000000  0.31250000  1
  Co  Co1  1  0.31250000  0.50000000  0.56250000  1
  Co  Co1  1  0.31250000  0.50000000  0.81250000  1
  Co  Co1  1  0.31250000  0.75000000  0.06250000  1
  Co  Co1  1  0.31250000  0.75000000  0.31250000  1
  Co  Co1  1  0.31250000  0.75000000  0.56250000  1
  Co  Co1  1  0.31250000  0.75000000  0.81250000  1
  Co  Co1  1  0.56250000  0.00000000  0.06250000  1
  Co  Co1  1  0.56250000  0.00000000  0.31250000  1
  Co  Co1  1  0.56250000  0.00000000  0.56250000  1
  Co  Co1  1  0.56250000  0.00000000  0.81250000  1
  Co  Co1  1  0.56250000  0.25000000  0.06250000  1
  Co  Co1  1  0.56250000  0.25000000  0.31250000  1
  Co  Co1  1  0.56250000  0.25000000  0.56250000  1
  Co  Co1  1  0.56250000  0.25000000  0.81250000  1
  Co  Co1  1  0.56250000  0.50000000  0.06250000  1
  Co  Co1  1  0.56250000  0.50000000  0.31250000  1
  Co  Co1  1  0.56250000  0.50000000  0.56250000  1
  Co  Co1  1  0.56250000  0.50000000  0.81250000  1
  Co  Co1  1  0.56250000  0.75000000  0.06250000  1
  Co  Co1  1  0.56250000  0.75000000  0.31250000  1
  Co  Co1  1  0.56250000  0.75000000  0.56250000  1
  Co  Co1  1  0.56250000  0.75000000  0.81250000  1
  Co  Co1  1  0.81250000  0.00000000  0.06250000  1
  Co  Co1  1  0.81250000  0.00000000  0.31250000  1
  Co  Co1  1  0.81250000  0.00000000  0.56250000  1
  Co  Co1  1  0.81250000  0.00000000  0.81250000  1
  Co  Co1  1  0.81250000  0.25000000  0.06250000  1
  Co  Co1  1  0.81250000  0.25000000  0.31250000  1
  Co  Co1  1  0.81250000  0.25000000  0.56250000  1
  Co  Co1  1  0.81250000  0.25000000  0.81250000  1
  Co  Co1  1  0.81250000  0.50000000  0.06250000  1
  Co  Co1  1  0.81250000  0.50000000  0.31250000  1
  Co  Co1  1  0.81250000  0.50000000  0.56250000  1
  Co  Co1  1  0.81250000  0.50000000  0.81250000  1
  Co  Co1  1  0.81250000  0.75000000  0.06250000  1
  Co  Co1  1  0.81250000  0.75000000  0.31250000  1
  Co  Co1  1  0.81250000  0.75000000  0.56250000  1
  Co  Co1  1  0.81250000  0.75000000  0.81250000  1
  Co  Co1  1  0.12500000  0.06250000  0.18750000  1
  Co  Co1  1  0.12500000  0.06250000  0.43750000  1
  Co  Co1  1  0.12500000  0.06250000  0.68750000  1
  Co  Co1  1  0.12500000  0.06250000  0.93750000  1
  Co  Co1  1  0.12500000  0.31250000  0.18750000  1
  Co  Co1  1  0.12500000  0.31250000  0.43750000  1
  Co  Co1  1  0.12500000  0.31250000  0.68750000  1
  Co  Co1  1  0.12500000  0.31250000  0.93750000  1
  Co  Co1  1  0.12500000  0.56250000  0.18750000  1
  Co  Co1  1  0.12500000  0.56250000  0.43750000  1
  Co  Co1  1  0.12500000  0.56250000  0.68750000  1
  Co  Co1  1  0.12500000  0.56250000  0.93750000  1
  Co  Co1  1  0.12500000  0.81250000  0.18750000  1
  Co  Co1  1  0.12500000  0.81250000  0.43750000  1
  Co  Co1  1  0.12500000  0.81250000  0.68750000  1
  Co  Co1  1  0.12500000  0.81250000  0.93750000  1
  Co  Co1  1  0.37500000  0.06250000  0.18750000  1
  Co  Co1  1  0.37500000  0.06250000  0.43750000  1
  Co  Co1  1  0.37500000  0.06250000  0.68750000  1
  Co  Co1  1  0.37500000  0.06250000  0.93750000  1
  Co  Co1  1  0.37500000  0.31250000  0.18750000  1
  Co  Co1  1  0.37500000  0.31250000  0.43750000  1
  Co  Co1  1  0.37500000  0.31250000  0.68750000  1
  Co  Co1  1  0.37500000  0.31250000  0.93750000  1
  Co  Co1  1  0.37500000  0.56250000  0.18750000  1
  Co  Co1  1  0.37500000  0.56250000  0.43750000  1
  Co  Co1  1  0.37500000  0.56250000  0.68750000  1
  Co  Co1  1  0.37500000  0.56250000  0.93750000  1
  Co  Co1  1  0.37500000  0.81250000  0.18750000  1
  Co  Co1  1  0.37500000  0.81250000  0.43750000  1
  Co  Co1  1  0.37500000  0.81250000  0.68750000  1
  Co  Co1  1  0.37500000  0.81250000  0.93750000  1
  Co  Co1  1  0.62500000  0.06250000  0.18750000  1
  Co  Co1  1  0.62500000  0.06250000  0.43750000  1
  Co  Co1  1  0.62500000  0.06250000  0.68750000  1
  Co  Co1  1  0.62500000  0.06250000  0.93750000  1
  Co  Co1  1  0.62500000  0.31250000  0.18750000  1
  Co  Co1  1  0.62500000  0.31250000  0.43750000  1
  Co  Co1  1  0.62500000  0.31250000  0.68750000  1
  Co  Co1  1  0.62500000  0.31250000  0.93750000  1
  Co  Co1  1  0.62500000  0.56250000  0.18750000  1
  Co  Co1  1  0.62500000  0.56250000  0.43750000  1
  Co  Co1  1  0.62500000  0.56250000  0.68750000  1
  Co  Co1  1  0.62500000  0.56250000  0.93750000  1
  Co  Co1  1  0.62500000  0.81250000  0.18750000  1
  Co  Co1  1  0.62500000  0.81250000  0.43750000  1
  Co  Co1  1  0.62500000  0.81250000  0.68750000  1
  Co  Co1  1  0.62500000  0.81250000  0.93750000  1
  Co  Co1  1  0.87500000  0.06250000  0.18750000  1
  Co  Co1  1  0.87500000  0.06250000  0.43750000  1
  Co  Co1  1  0.87500000  0.06250000  0.68750000  1
  Co  Co1  1  0.87500000  0.06250000  0.93750000  1
  Co  Co1  1  0.87500000  0.31250000  0.18750000  1
  Co  Co1  1  0.87500000  0.31250000  0.43750000  1
  Co  Co1  1  0.87500000  0.31250000  0.68750000  1
  Co  Co1  1  0.87500000  0.31250000  0.93750000  1
  Co  Co1  1  0.87500000  0.56250000  0.18750000  1
  Co  Co1  1  0.87500000  0.56250000  0.43750000  1
  Co  Co1  1  0.87500000  0.56250000  0.68750000  1
  Co  Co1  1  0.87500000  0.56250000  0.93750000  1
  Co  Co1  1  0.87500000  0.81250000  0.18750000  1
  Co  Co1  1  0.87500000  0.81250000  0.43750000  1
  Co  Co1  1  0.87500000  0.81250000  0.68750000  1
  Co  Co1  1  0.87500000  0.81250000  0.93750000  1
  Co  Co1  1  0.00000000  0.18750000  0.18750000  1
  Co  Co1  1  0.00000000  0.18750000  0.43750000  1
  Co  Co1  1  0.00000000  0.18750000  0.68750000  1
  Co  Co1  1  0.00000000  0.18750000  0.93750000  1
  Co  Co1  1  0.00000000  0.43750000  0.18750000  1
  Co  Co1  1  0.00000000  0.43750000  0.43750000  1
  Co  Co1  1  0.00000000  0.43750000  0.68750000  1
  Co  Co1  1  0.00000000  0.43750000  0.93750000  1
  Co  Co1  1  0.00000000  0.68750000  0.18750000  1
  Co  Co1  1  0.00000000  0.68750000  0.43750000  1
  Co  Co1  1  0.00000000  0.68750000  0.68750000  1
  Co  Co1  1  0.00000000  0.68750000  0.93750000  1
  Co  Co1  1  0.00000000  0.93750000  0.18750000  1
  Co  Co1  1  0.00000000  0.93750000  0.43750000  1
  Co  Co1  1  0.00000000  0.93750000  0.68750000  1
  Co  Co1  1  0.00000000  0.93750000  0.93750000  1
  Co  Co1  1  0.25000000  0.18750000  0.18750000  1
  Co  Co1  1  0.25000000  0.18750000  0.43750000  1
  Co  Co1  1  0.25000000  0.18750000  0.68750000  1
  Co  Co1  1  0.25000000  0.18750000  0.93750000  1
  Co  Co1  1  0.25000000  0.43750000  0.18750000  1
  Co  Co1  1  0.25000000  0.43750000  0.43750000  1
  Co  Co1  1  0.25000000  0.43750000  0.68750000  1
  Co  Co1  1  0.25000000  0.43750000  0.93750000  1
  Co  Co1  1  0.25000000  0.68750000  0.18750000  1
  Co  Co1  1  0.25000000  0.68750000  0.43750000  1
  Co  Co1  1  0.25000000  0.68750000  0.68750000  1
  Co  Co1  1  0.25000000  0.68750000  0.93750000  1
  Co  Co1  1  0.25000000  0.93750000  0.18750000  1
  Co  Co1  1  0.25000000  0.93750000  0.43750000  1
  Co  Co1  1  0.25000000  0.93750000  0.68750000  1
  Co  Co1  1  0.25000000  0.93750000  0.93750000  1
  Co  Co1  1  0.50000000  0.18750000  0.18750000  1
  Co  Co1  1  0.50000000  0.18750000  0.43750000  1
  Co  Co1  1  0.50000000  0.18750000  0.68750000  1
  Co  Co1  1  0.50000000  0.18750000  0.93750000  1
  Co  Co1  1  0.50000000  0.43750000  0.18750000  1
  Co  Co1  1  0.50000000  0.43750000  0.43750000  1
  Co  Co1  1  0.50000000  0.43750000  0.68750000  1
  Co  Co1  1  0.50000000  0.43750000  0.93750000  1
  Co  Co1  1  0.50000000  0.68750000  0.18750000  1
  Co  Co1  1  0.50000000  0.68750000  0.43750000  1
  Co  Co1  1  0.50000000  0.68750000  0.68750000  1
  Co  Co1  1  0.50000000  0.68750000  0.93750000  1
  Co  Co1  1  0.50000000  0.93750000  0.18750000  1
  Co  Co1  1  0.50000000  0.93750000  0.43750000  1
  Co  Co1  1  0.50000000  0.93750000  0.68750000  1
  Co  Co1  1  0.50000000  0.93750000  0.93750000  1
  Co  Co1  1  0.75000000  0.18750000  0.18750000  1
  Co  Co1  1  0.75000000  0.18750000  0.43750000  1
  Co  Co1  1  0.75000000  0.18750000  0.68750000  1
  Co  Co1  1  0.75000000  0.18750000  0.93750000  1
  Co  Co1  1  0.75000000  0.43750000  0.18750000  1
  Co  Co1  1  0.75000000  0.43750000  0.43750000  1
  Co  Co1  1  0.75000000  0.43750000  0.68750000  1
  Co  Co1  1  0.75000000  0.43750000  0.93750000  1
  Co  Co1  1  0.75000000  0.68750000  0.18750000  1
  Co  Co1  1  0.75000000  0.68750000  0.43750000  1
  Co  Co1  1  0.75000000  0.68750000  0.68750000  1
  Co  Co1  1  0.75000000  0.68750000  0.93750000  1
  Co  Co1  1  0.75000000  0.93750000  0.18750000  1
  Co  Co1  1  0.75000000  0.93750000  0.43750000  1
  Co  Co1  1  0.75000000  0.93750000  0.68750000  1
  Co  Co1  1  0.75000000  0.93750000  0.93750000  1
  Co  Co1  1  0.18750000  0.12500000  0.06250000  1
  Co  Co1  1  0.18750000  0.12500000  0.31250000  1
  Co  Co1  1  0.18750000  0.12500000  0.56250000  1
  Co  Co1  1  0.18750000  0.12500000  0.81250000  1
  Co  Co1  1  0.18750000  0.37500000  0.06250000  1
  Co  Co1  1  0.18750000  0.37500000  0.31250000  1
  Co  Co1  1  0.18750000  0.37500000  0.56250000  1
  Co  Co1  1  0.18750000  0.37500000  0.81250000  1
  Co  Co1  1  0.18750000  0.62500000  0.06250000  1
  Co  Co1  1  0.18750000  0.62500000  0.31250000  1
  Co  Co1  1  0.18750000  0.62500000  0.56250000  1
  Co  Co1  1  0.18750000  0.62500000  0.81250000  1
  Co  Co1  1  0.18750000  0.87500000  0.06250000  1
  Co  Co1  1  0.18750000  0.87500000  0.31250000  1
  Co  Co1  1  0.18750000  0.87500000  0.56250000  1
  Co  Co1  1  0.18750000  0.87500000  0.81250000  1
  Co  Co1  1  0.43750000  0.12500000  0.06250000  1
  Co  Co1  1  0.43750000  0.12500000  0.31250000  1
  Co  Co1  1  0.43750000  0.12500000  0.56250000  1
  Co  Co1  1  0.43750000  0.12500000  0.81250000  1
  Co  Co1  1  0.43750000  0.37500000  0.06250000  1
  Co  Co1  1  0.43750000  0.37500000  0.31250000  1
  Co  Co1  1  0.43750000  0.37500000  0.56250000  1
  Co  Co1  1  0.43750000  0.37500000  0.81250000  1
  Co  Co1  1  0.43750000  0.62500000  0.06250000  1
  Co  Co1  1  0.43750000  0.62500000  0.31250000  1
  Co  Co1  1  0.43750000  0.62500000  0.56250000  1
  Co  Co1  1  0.43750000  0.62500000  0.81250000  1
  Co  Co1  1  0.43750000  0.87500000  0.06250000  1
  Co  Co1  1  0.43750000  0.87500000  0.31250000  1
  Co  Co1  1  0.43750000  0.87500000  0.56250000  1
  Co  Co1  1  0.43750000  0.87500000  0.81250000  1
  Co  Co1  1  0.68750000  0.12500000  0.06250000  1
  Co  Co1  1  0.68750000  0.12500000  0.31250000  1
  Co  Co1  1  0.68750000  0.12500000  0.56250000  1
  Co  Co1  1  0.68750000  0.12500000  0.81250000  1
  Co  Co1  1  0.68750000  0.37500000  0.06250000  1
  Co  Co1  1  0.68750000  0.37500000  0.31250000  1
  Co  Co1  1  0.68750000  0.37500000  0.56250000  1
  Co  Co1  1  0.68750000  0.37500000  0.81250000  1
  Co  Co1  1  0.68750000  0.62500000  0.06250000  1
  Co  Co1  1  0.68750000  0.62500000  0.31250000  1
  Co  Co1  1  0.68750000  0.62500000  0.56250000  1
  Co  Co1  1  0.68750000  0.62500000  0.81250000  1
  Co  Co1  1  0.68750000  0.87500000  0.06250000  1
  Co  Co1  1  0.68750000  0.87500000  0.31250000  1
  Co  Co1  1  0.68750000  0.87500000  0.56250000  1
  Co  Co1  1  0.68750000  0.87500000  0.81250000  1
  Co  Co1  1  0.93750000  0.12500000  0.06250000  1
  Co  Co1  1  0.93750000  0.12500000  0.31250000  1
  Co  Co1  1  0.93750000  0.12500000  0.56250000  1
  Co  Co1  1  0.93750000  0.12500000  0.81250000  1
  Co  Co1  1  0.93750000  0.37500000  0.06250000  1
  Co  Co1  1  0.93750000  0.37500000  0.31250000  1
  Co  Co1  1  0.93750000  0.37500000  0.56250000  1
  Co  Co1  1  0.93750000  0.37500000  0.81250000  1
  Co  Co1  1  0.93750000  0.62500000  0.06250000  1
  Co  Co1  1  0.93750000  0.62500000  0.31250000  1
  Co  Co1  1  0.93750000  0.62500000  0.56250000  1
  Co  Co1  1  0.93750000  0.62500000  0.81250000  1
  Co  Co1  1  0.93750000  0.87500000  0.06250000  1
  Co  Co1  1  0.93750000  0.87500000  0.31250000  1
  Co  Co1  1  0.93750000  0.87500000  0.56250000  1
  Co  Co1  1  0.93750000  0.87500000  0.81250000  1
  Co  Co1  1  0.18750000  0.18750000  0.00000000  1
  Co  Co1  1  0.18750000  0.18750000  0.25000000  1
  Co  Co1  1  0.18750000  0.18750000  0.50000000  1
  Co  Co1  1  0.18750000  0.18750000  0.75000000  1
  Co  Co1  1  0.18750000  0.43750000  0.00000000  1
  Co  Co1  1  0.18750000  0.43750000  0.25000000  1
  Co  Co1  1  0.18750000  0.43750000  0.50000000  1
  Co  Co1  1  0.18750000  0.43750000  0.75000000  1
  Co  Co1  1  0.18750000  0.68750000  0.00000000  1
  Co  Co1  1  0.18750000  0.68750000  0.25000000  1
  Co  Co1  1  0.18750000  0.68750000  0.50000000  1
  Co  Co1  1  0.18750000  0.68750000  0.75000000  1
  Co  Co1  1  0.18750000  0.93750000  0.00000000  1
  Co  Co1  1  0.18750000  0.93750000  0.25000000  1
  Co  Co1  1  0.18750000  0.93750000  0.50000000  1
  Co  Co1  1  0.18750000  0.93750000  0.75000000  1
  Co  Co1  1  0.43750000  0.18750000  0.00000000  1
  Co  Co1  1  0.43750000  0.18750000  0.25000000  1
  Co  Co1  1  0.43750000  0.18750000  0.50000000  1
  Co  Co1  1  0.43750000  0.18750000  0.75000000  1
  Co  Co1  1  0.43750000  0.43750000  0.00000000  1
  Co  Co1  1  0.43750000  0.43750000  0.25000000  1
  Co  Co1  1  0.43750000  0.43750000  0.50000000  1
  Co  Co1  1  0.43750000  0.43750000  0.75000000  1
  Co  Co1  1  0.43750000  0.68750000  0.00000000  1
  Co  Co1  1  0.43750000  0.68750000  0.25000000  1
  Co  Co1  1  0.43750000  0.68750000  0.50000000  1
  Co  Co1  1  0.43750000  0.68750000  0.75000000  1
  Co  Co1  1  0.43750000  0.93750000  0.00000000  1
  Co  Co1  1  0.43750000  0.93750000  0.25000000  1
  Co  Co1  1  0.43750000  0.93750000  0.50000000  1
  Co  Co1  1  0.43750000  0.93750000  0.75000000  1
  Co  Co1  1  0.68750000  0.18750000  0.00000000  1
  Co  Co1  1  0.68750000  0.18750000  0.25000000  1
  Co  Co1  1  0.68750000  0.18750000  0.50000000  1
  Co  Co1  1  0.68750000  0.18750000  0.75000000  1
  Co  Co1  1  0.68750000  0.43750000  0.00000000  1
  Co  Co1  1  0.68750000  0.43750000  0.25000000  1
  Co  Co1  1  0.68750000  0.43750000  0.50000000  1
  Co  Co1  1  0.68750000  0.43750000  0.75000000  1
  Co  Co1  1  0.68750000  0.68750000  0.00000000  1
  Co  Co1  1  0.68750000  0.68750000  0.25000000  1
  Co  Co1  1  0.68750000  0.68750000  0.50000000  1
  Co  Co1  1  0.68750000  0.68750000  0.75000000  1
  Co  Co1  1  0.68750000  0.93750000  0.00000000  1
  Co  Co1  1  0.68750000  0.93750000  0.25000000  1
  Co  Co1  1  0.68750000  0.93750000  0.50000000  1
  Co  Co1  1  0.68750000  0.93750000  0.75000000  1
  Co  Co1  1  0.93750000  0.18750000  0.00000000  1
  Co  Co1  1  0.93750000  0.18750000  0.25000000  1
  Co  Co1  1  0.93750000  0.18750000  0.50000000  1
  Co  Co1  1  0.93750000  0.18750000  0.75000000  1
  Co  Co1  1  0.93750000  0.43750000  0.00000000  1
  Co  Co1  1  0.93750000  0.43750000  0.25000000  1
  Co  Co1  1  0.93750000  0.43750000  0.50000000  1
  Co  Co1  1  0.93750000  0.43750000  0.75000000  1
  Co  Co1  1  0.93750000  0.68750000  0.00000000  1
  Co  Co1  1  0.93750000  0.68750000  0.25000000  1
  Co  Co1  1  0.93750000  0.68750000  0.50000000  1
  Co  Co1  1  0.93750000  0.68750000  0.75000000  1
  Co  Co1  1  0.93750000  0.93750000  0.00000000  1
  Co  Co1  1  0.93750000  0.93750000  0.25000000  1
  Co  Co1  1  0.93750000  0.93750000  0.50000000  1
  Co  Co1  1  0.93750000  0.93750000  0.75000000  1
  Co  Co1  1  0.12500000  0.00000000  0.12500000  1
  Co  Co1  1  0.12500000  0.00000000  0.37500000  1
  Co  Co1  1  0.12500000  0.00000000  0.62500000  1
  Co  Co1  1  0.12500000  0.00000000  0.87500000  1
  Co  Co1  1  0.12500000  0.25000000  0.12500000  1
  Co  Co1  1  0.12500000  0.25000000  0.37500000  1
  Co  Co1  1  0.12500000  0.25000000  0.62500000  1
  Co  Co1  1  0.12500000  0.25000000  0.87500000  1
  Co  Co1  1  0.12500000  0.50000000  0.12500000  1
  Co  Co1  1  0.12500000  0.50000000  0.37500000  1
  Co  Co1  1  0.12500000  0.50000000  0.62500000  1
  Co  Co1  1  0.12500000  0.50000000  0.87500000  1
  Co  Co1  1  0.12500000  0.75000000  0.12500000  1
  Co  Co1  1  0.12500000  0.75000000  0.37500000  1
  Co  Co1  1  0.12500000  0.75000000  0.62500000  1
  Co  Co1  1  0.12500000  0.75000000  0.87500000  1
  Co  Co1  1  0.37500000  0.00000000  0.12500000  1
  Co  Co1  1  0.37500000  0.00000000  0.37500000  1
  Co  Co1  1  0.37500000  0.00000000  0.62500000  1
  Co  Co1  1  0.37500000  0.00000000  0.87500000  1
  Co  Co1  1  0.37500000  0.25000000  0.12500000  1
  Co  Co1  1  0.37500000  0.25000000  0.37500000  1
  Co  Co1  1  0.37500000  0.25000000  0.62500000  1
  Co  Co1  1  0.37500000  0.25000000  0.87500000  1
  Co  Co1  1  0.37500000  0.50000000  0.12500000  1
  Co  Co1  1  0.37500000  0.50000000  0.37500000  1
  Co  Co1  1  0.37500000  0.50000000  0.62500000  1
  Co  Co1  1  0.37500000  0.50000000  0.87500000  1
  Co  Co1  1  0.37500000  0.75000000  0.12500000  1
  Co  Co1  1  0.37500000  0.75000000  0.37500000  1
  Co  Co1  1  0.37500000  0.75000000  0.62500000  1
  Co  Co1  1  0.37500000  0.75000000  0.87500000  1
  Co  Co1  1  0.62500000  0.00000000  0.12500000  1
  Co  Co1  1  0.62500000  0.00000000  0.37500000  1
  Co  Co1  1  0.62500000  0.00000000  0.62500000  1
  Co  Co1  1  0.62500000  0.00000000  0.87500000  1
  Co  Co1  1  0.62500000  0.25000000  0.12500000  1
  Co  Co1  1  0.62500000  0.25000000  0.37500000  1
  Co  Co1  1  0.62500000  0.25000000  0.62500000  1
  Co  Co1  1  0.62500000  0.25000000  0.87500000  1
  Co  Co1  1  0.62500000  0.50000000  0.12500000  1
  Co  Co1  1  0.62500000  0.50000000  0.37500000  1
  Co  Co1  1  0.62500000  0.50000000  0.62500000  1
  Co  Co1  1  0.62500000  0.50000000  0.87500000  1
  Co  Co1  1  0.62500000  0.75000000  0.12500000  1
  Co  Co1  1  0.62500000  0.75000000  0.37500000  1
  Co  Co1  1  0.62500000  0.75000000  0.62500000  1
  Co  Co1  1  0.62500000  0.75000000  0.87500000  1
  Co  Co1  1  0.87500000  0.00000000  0.12500000  1
  Co  Co1  1  0.87500000  0.00000000  0.37500000  1
  Co  Co1  1  0.87500000  0.00000000  0.62500000  1
  Co  Co1  1  0.87500000  0.00000000  0.87500000  1
  Co  Co1  1  0.87500000  0.25000000  0.12500000  1
  Co  Co1  1  0.87500000  0.25000000  0.37500000  1
  Co  Co1  1  0.87500000  0.25000000  0.62500000  1
  Co  Co1  1  0.87500000  0.25000000  0.87500000  1
  Co  Co1  1  0.87500000  0.50000000  0.12500000  1
  Co  Co1  1  0.87500000  0.50000000  0.37500000  1
  Co  Co1  1  0.87500000  0.50000000  0.62500000  1
  Co  Co1  1  0.87500000  0.50000000  0.87500000  1
  Co  Co1  1  0.87500000  0.75000000  0.12500000  1
  Co  Co1  1  0.87500000  0.75000000  0.37500000  1
  Co  Co1  1  0.87500000  0.75000000  0.62500000  1
  Co  Co1  1  0.87500000  0.75000000  0.87500000  1
  Co  Co1  1  0.12500000  0.12500000  0.00000000  1
  Co  Co1  1  0.12500000  0.12500000  0.25000000  1
  Co  Co1  1  0.12500000  0.12500000  0.50000000  1
  Co  Co1  1  0.12500000  0.12500000  0.75000000  1
  Co  Co1  1  0.12500000  0.37500000  0.00000000  1
  Co  Co1  1  0.12500000  0.37500000  0.25000000  1
  Co  Co1  1  0.12500000  0.37500000  0.50000000  1
  Co  Co1  1  0.12500000  0.37500000  0.75000000  1
  Co  Co1  1  0.12500000  0.62500000  0.00000000  1
  Co  Co1  1  0.12500000  0.62500000  0.25000000  1
  Co  Co1  1  0.12500000  0.62500000  0.50000000  1
  Co  Co1  1  0.12500000  0.62500000  0.75000000  1
  Co  Co1  1  0.12500000  0.87500000  0.00000000  1
  Co  Co1  1  0.12500000  0.87500000  0.25000000  1
  Co  Co1  1  0.12500000  0.87500000  0.50000000  1
  Co  Co1  1  0.12500000  0.87500000  0.75000000  1
  Co  Co1  1  0.37500000  0.12500000  0.00000000  1
  Co  Co1  1  0.37500000  0.12500000  0.25000000  1
  Co  Co1  1  0.37500000  0.12500000  0.50000000  1
  Co  Co1  1  0.37500000  0.12500000  0.75000000  1
  Co  Co1  1  0.37500000  0.37500000  0.00000000  1
  Co  Co1  1  0.37500000  0.37500000  0.25000000  1
  Co  Co1  1  0.37500000  0.37500000  0.50000000  1
  Co  Co1  1  0.37500000  0.37500000  0.75000000  1
  Co  Co1  1  0.37500000  0.62500000  0.00000000  1
  Co  Co1  1  0.37500000  0.62500000  0.25000000  1
  Co  Co1  1  0.37500000  0.62500000  0.50000000  1
  Co  Co1  1  0.37500000  0.62500000  0.75000000  1
  Co  Co1  1  0.37500000  0.87500000  0.00000000  1
  Co  Co1  1  0.37500000  0.87500000  0.25000000  1
  Co  Co1  1  0.37500000  0.87500000  0.50000000  1
  Co  Co1  1  0.37500000  0.87500000  0.75000000  1
  Co  Co1  1  0.62500000  0.12500000  0.00000000  1
  Co  Co1  1  0.62500000  0.12500000  0.25000000  1
  Co  Co1  1  0.62500000  0.12500000  0.50000000  1
  Co  Co1  1  0.62500000  0.12500000  0.75000000  1
  Co  Co1  1  0.62500000  0.37500000  0.00000000  1
  Co  Co1  1  0.62500000  0.37500000  0.25000000  1
  Co  Co1  1  0.62500000  0.37500000  0.50000000  1
  Co  Co1  1  0.62500000  0.37500000  0.75000000  1
  Co  Co1  1  0.62500000  0.62500000  0.00000000  1
  Co  Co1  1  0.62500000  0.62500000  0.25000000  1
  Co  Co1  1  0.62500000  0.62500000  0.50000000  1
  Co  Co1  1  0.62500000  0.62500000  0.75000000  1
  Co  Co1  1  0.62500000  0.87500000  0.00000000  1
  Co  Co1  1  0.62500000  0.87500000  0.25000000  1
  Co  Co1  1  0.62500000  0.87500000  0.50000000  1
  Co  Co1  1  0.62500000  0.87500000  0.75000000  1
  Co  Co1  1  0.87500000  0.12500000  0.00000000  1
  Co  Co1  1  0.87500000  0.12500000  0.25000000  1
  Co  Co1  1  0.87500000  0.12500000  0.50000000  1
  Co  Co1  1  0.87500000  0.12500000  0.75000000  1
  Co  Co1  1  0.87500000  0.37500000  0.00000000  1
  Co  Co1  1  0.87500000  0.37500000  0.25000000  1
  Co  Co1  1  0.87500000  0.37500000  0.50000000  1
  Co  Co1  1  0.87500000  0.37500000  0.75000000  1
  Co  Co1  1  0.87500000  0.62500000  0.00000000  1
  Co  Co1  1  0.87500000  0.62500000  0.25000000  1
  Co  Co1  1  0.87500000  0.62500000  0.50000000  1
  Co  Co1  1  0.87500000  0.62500000  0.75000000  1
  Co  Co1  1  0.87500000  0.87500000  0.00000000  1
  Co  Co1  1  0.87500000  0.87500000  0.25000000  1
  Co  Co1  1  0.87500000  0.87500000  0.50000000  1
  Co  Co1  1  0.87500000  0.87500000  0.75000000  1
