# generated using pymatgen
data_Ta2Co
_symmetry_space_group_name_H-M   'P 1'
_cell_length_a   24.48000000
_cell_length_b   24.48000000
_cell_length_c   19.88000000
_cell_angle_alpha   90.00000000
_cell_angle_beta   90.00000000
_cell_angle_gamma   90.00000000
_symmetry_Int_Tables_number   1
_chemical_formula_structural   Ta2Co
_chemical_formula_sum   'Ta512 Co256'
_cell_volume   11913.49555200
_cell_formula_units_Z   256
loop_
 _symmetry_equiv_pos_site_id
 _symmetry_equiv_pos_as_xyz
  1  'x, y, z'
loop_
 _atom_site_type_symbol
 _atom_site_label
 _atom_site_symmetry_multiplicity
 _atom_site_fract_x
 _atom_site_fract_y
 _atom_site_fract_z
 _atom_site_occupancy
  Ta  Ta0  1  0.08534827  0.03965173  0.12500000  1
  Ta  Ta0  1  0.08534827  0.03965173  0.37500000  1
  Ta  Ta0  1  0.08534827  0.03965173  0.62500000  1
  Ta  Ta0  1  0.08534827  0.03965173  0.87500000  1
  Ta  Ta0  1  0.08534827  0.28965173  0.12500000  1
  Ta  Ta0  1  0.08534827  0.28965173  0.37500000  1
  Ta  Ta0  1  0.08534827  0.28965173  0.62500000  1
  Ta  Ta0  1  0.08534827  0.28965173  0.87500000  1
  Ta  Ta0  1  0.08534827  0.53965173  0.12500000  1
  Ta  Ta0  1  0.08534827  0.53965173  0.37500000  1
  Ta  Ta0  1  0.08534827  0.53965173  0.62500000  1
  Ta  Ta0  1  0.08534827  0.53965173  0.87500000  1
  Ta  Ta0  1  0.08534827  0.78965173  0.12500000  1
  Ta  Ta0  1  0.08534827  0.78965173  0.37500000  1
  Ta  Ta0  1  0.08534827  0.78965173  0.62500000  1
  Ta  Ta0  1  0.08534827  0.78965173  0.87500000  1
  Ta  Ta0  1  0.33534827  0.03965173  0.12500000  1
  Ta  Ta0  1  0.33534827  0.03965173  0.37500000  1
  Ta  Ta0  1  0.33534827  0.03965173  0.62500000  1
  Ta  Ta0  1  0.33534827  0.03965173  0.87500000  1
  Ta  Ta0  1  0.33534827  0.28965173  0.12500000  1
  Ta  Ta0  1  0.33534827  0.28965173  0.37500000  1
  Ta  Ta0  1  0.33534827  0.28965173  0.62500000  1
  Ta  Ta0  1  0.33534827  0.28965173  0.87500000  1
  Ta  Ta0  1  0.33534827  0.53965173  0.12500000  1
  Ta  Ta0  1  0.33534827  0.53965173  0.37500000  1
  Ta  Ta0  1  0.33534827  0.53965173  0.62500000  1
  Ta  Ta0  1  0.33534827  0.53965173  0.87500000  1
  Ta  Ta0  1  0.33534827  0.78965173  0.12500000  1
  Ta  Ta0  1  0.33534827  0.78965173  0.37500000  1
  Ta  Ta0  1  0.33534827  0.78965173  0.62500000  1
  Ta  Ta0  1  0.33534827  0.78965173  0.87500000  1
  Ta  Ta0  1  0.58534827  0.03965173  0.12500000  1
  Ta  Ta0  1  0.58534827  0.03965173  0.37500000  1
  Ta  Ta0  1  0.58534827  0.03965173  0.62500000  1
  Ta  Ta0  1  0.58534827  0.03965173  0.87500000  1
  Ta  Ta0  1  0.58534827  0.28965173  0.12500000  1
  Ta  Ta0  1  0.58534827  0.28965173  0.37500000  1
  Ta  Ta0  1  0.58534827  0.28965173  0.62500000  1
  Ta  Ta0  1  0.58534827  0.28965173  0.87500000  1
  Ta  Ta0  1  0.58534827  0.53965173  0.12500000  1
  Ta  Ta0  1  0.58534827  0.53965173  0.37500000  1
  Ta  Ta0  1  0.58534827  0.53965173  0.62500000  1
  Ta  Ta0  1  0.58534827  0.53965173  0.87500000  1
  Ta  Ta0  1  0.58534827  0.78965173  0.12500000  1
  Ta  Ta0  1  0.58534827  0.78965173  0.37500000  1
  Ta  Ta0  1  0.58534827  0.78965173  0.62500000  1
  Ta  Ta0  1  0.58534827  0.78965173  0.87500000  1
  Ta  Ta0  1  0.83534827  0.03965173  0.12500000  1
  Ta  Ta0  1  0.83534827  0.03965173  0.37500000  1
  Ta  Ta0  1  0.83534827  0.03965173  0.62500000  1
  Ta  Ta0  1  0.83534827  0.03965173  0.87500000  1
  Ta  Ta0  1  0.83534827  0.28965173  0.12500000  1
  Ta  Ta0  1  0.83534827  0.28965173  0.37500000  1
  Ta  Ta0  1  0.83534827  0.28965173  0.62500000  1
  Ta  Ta0  1  0.83534827  0.28965173  0.87500000  1
  Ta  Ta0  1  0.83534827  0.53965173  0.12500000  1
  Ta  Ta0  1  0.83534827  0.53965173  0.37500000  1
  Ta  Ta0  1  0.83534827  0.53965173  0.62500000  1
  Ta  Ta0  1  0.83534827  0.53965173  0.87500000  1
  Ta  Ta0  1  0.83534827  0.78965173  0.12500000  1
  Ta  Ta0  1  0.83534827  0.78965173  0.37500000  1
  Ta  Ta0  1  0.83534827  0.78965173  0.62500000  1
  Ta  Ta0  1  0.83534827  0.78965173  0.87500000  1
  Ta  Ta1  1  0.16465173  0.03965173  0.00000000  1
  Ta  Ta1  1  0.16465173  0.03965173  0.25000000  1
  Ta  Ta1  1  0.16465173  0.03965173  0.50000000  1
  Ta  Ta1  1  0.16465173  0.03965173  0.75000000  1
  Ta  Ta1  1  0.16465173  0.28965173  0.00000000  1
  Ta  Ta1  1  0.16465173  0.28965173  0.25000000  1
  Ta  Ta1  1  0.16465173  0.28965173  0.50000000  1
  Ta  Ta1  1  0.16465173  0.28965173  0.75000000  1
  Ta  Ta1  1  0.16465173  0.53965173  0.00000000  1
  Ta  Ta1  1  0.16465173  0.53965173  0.25000000  1
  Ta  Ta1  1  0.16465173  0.53965173  0.50000000  1
  Ta  Ta1  1  0.16465173  0.53965173  0.75000000  1
  Ta  Ta1  1  0.16465173  0.78965173  0.00000000  1
  Ta  Ta1  1  0.16465173  0.78965173  0.25000000  1
  Ta  Ta1  1  0.16465173  0.78965173  0.50000000  1
  Ta  Ta1  1  0.16465173  0.78965173  0.75000000  1
  Ta  Ta1  1  0.41465173  0.03965173  0.00000000  1
  Ta  Ta1  1  0.41465173  0.03965173  0.25000000  1
  Ta  Ta1  1  0.41465173  0.03965173  0.50000000  1
  Ta  Ta1  1  0.41465173  0.03965173  0.75000000  1
  Ta  Ta1  1  0.41465173  0.28965173  0.00000000  1
  Ta  Ta1  1  0.41465173  0.28965173  0.25000000  1
  Ta  Ta1  1  0.41465173  0.28965173  0.50000000  1
  Ta  Ta1  1  0.41465173  0.28965173  0.75000000  1
  Ta  Ta1  1  0.41465173  0.53965173  0.00000000  1
  Ta  Ta1  1  0.41465173  0.53965173  0.25000000  1
  Ta  Ta1  1  0.41465173  0.53965173  0.50000000  1
  Ta  Ta1  1  0.41465173  0.53965173  0.75000000  1
  Ta  Ta1  1  0.41465173  0.78965173  0.00000000  1
  Ta  Ta1  1  0.41465173  0.78965173  0.25000000  1
  Ta  Ta1  1  0.41465173  0.78965173  0.50000000  1
  Ta  Ta1  1  0.41465173  0.78965173  0.75000000  1
  Ta  Ta1  1  0.66465173  0.03965173  0.00000000  1
  Ta  Ta1  1  0.66465173  0.03965173  0.25000000  1
  Ta  Ta1  1  0.66465173  0.03965173  0.50000000  1
  Ta  Ta1  1  0.66465173  0.03965173  0.75000000  1
  Ta  Ta1  1  0.66465173  0.28965173  0.00000000  1
  Ta  Ta1  1  0.66465173  0.28965173  0.25000000  1
  Ta  Ta1  1  0.66465173  0.28965173  0.50000000  1
  Ta  Ta1  1  0.66465173  0.28965173  0.75000000  1
  Ta  Ta1  1  0.66465173  0.53965173  0.00000000  1
  Ta  Ta1  1  0.66465173  0.53965173  0.25000000  1
  Ta  Ta1  1  0.66465173  0.53965173  0.50000000  1
  Ta  Ta1  1  0.66465173  0.53965173  0.75000000  1
  Ta  Ta1  1  0.66465173  0.78965173  0.00000000  1
  Ta  Ta1  1  0.66465173  0.78965173  0.25000000  1
  Ta  Ta1  1  0.66465173  0.78965173  0.50000000  1
  Ta  Ta1  1  0.66465173  0.78965173  0.75000000  1
  Ta  Ta1  1  0.91465173  0.03965173  0.00000000  1
  Ta  Ta1  1  0.91465173  0.03965173  0.25000000  1
  Ta  Ta1  1  0.91465173  0.03965173  0.50000000  1
  Ta  Ta1  1  0.91465173  0.03965173  0.75000000  1
  Ta  Ta1  1  0.91465173  0.28965173  0.00000000  1
  Ta  Ta1  1  0.91465173  0.28965173  0.25000000  1
  Ta  Ta1  1  0.91465173  0.28965173  0.50000000  1
  Ta  Ta1  1  0.91465173  0.28965173  0.75000000  1
  Ta  Ta1  1  0.91465173  0.53965173  0.00000000  1
  Ta  Ta1  1  0.91465173  0.53965173  0.25000000  1
  Ta  Ta1  1  0.91465173  0.53965173  0.50000000  1
  Ta  Ta1  1  0.91465173  0.53965173  0.75000000  1
  Ta  Ta1  1  0.91465173  0.78965173  0.00000000  1
  Ta  Ta1  1  0.91465173  0.78965173  0.25000000  1
  Ta  Ta1  1  0.91465173  0.78965173  0.50000000  1
  Ta  Ta1  1  0.91465173  0.78965173  0.75000000  1
  Ta  Ta2  1  0.08534827  0.21034827  0.00000000  1
  Ta  Ta2  1  0.08534827  0.21034827  0.25000000  1
  Ta  Ta2  1  0.08534827  0.21034827  0.50000000  1
  Ta  Ta2  1  0.08534827  0.21034827  0.75000000  1
  Ta  Ta2  1  0.08534827  0.46034827  0.00000000  1
  Ta  Ta2  1  0.08534827  0.46034827  0.25000000  1
  Ta  Ta2  1  0.08534827  0.46034827  0.50000000  1
  Ta  Ta2  1  0.08534827  0.46034827  0.75000000  1
  Ta  Ta2  1  0.08534827  0.71034827  0.00000000  1
  Ta  Ta2  1  0.08534827  0.71034827  0.25000000  1
  Ta  Ta2  1  0.08534827  0.71034827  0.50000000  1
  Ta  Ta2  1  0.08534827  0.71034827  0.75000000  1
  Ta  Ta2  1  0.08534827  0.96034827  0.00000000  1
  Ta  Ta2  1  0.08534827  0.96034827  0.25000000  1
  Ta  Ta2  1  0.08534827  0.96034827  0.50000000  1
  Ta  Ta2  1  0.08534827  0.96034827  0.75000000  1
  Ta  Ta2  1  0.33534827  0.21034827  0.00000000  1
  Ta  Ta2  1  0.33534827  0.21034827  0.25000000  1
  Ta  Ta2  1  0.33534827  0.21034827  0.50000000  1
  Ta  Ta2  1  0.33534827  0.21034827  0.75000000  1
  Ta  Ta2  1  0.33534827  0.46034827  0.00000000  1
  Ta  Ta2  1  0.33534827  0.46034827  0.25000000  1
  Ta  Ta2  1  0.33534827  0.46034827  0.50000000  1
  Ta  Ta2  1  0.33534827  0.46034827  0.75000000  1
  Ta  Ta2  1  0.33534827  0.71034827  0.00000000  1
  Ta  Ta2  1  0.33534827  0.71034827  0.25000000  1
  Ta  Ta2  1  0.33534827  0.71034827  0.50000000  1
  Ta  Ta2  1  0.33534827  0.71034827  0.75000000  1
  Ta  Ta2  1  0.33534827  0.96034827  0.00000000  1
  Ta  Ta2  1  0.33534827  0.96034827  0.25000000  1
  Ta  Ta2  1  0.33534827  0.96034827  0.50000000  1
  Ta  Ta2  1  0.33534827  0.96034827  0.75000000  1
  Ta  Ta2  1  0.58534827  0.21034827  0.00000000  1
  Ta  Ta2  1  0.58534827  0.21034827  0.25000000  1
  Ta  Ta2  1  0.58534827  0.21034827  0.50000000  1
  Ta  Ta2  1  0.58534827  0.21034827  0.75000000  1
  Ta  Ta2  1  0.58534827  0.46034827  0.00000000  1
  Ta  Ta2  1  0.58534827  0.46034827  0.25000000  1
  Ta  Ta2  1  0.58534827  0.46034827  0.50000000  1
  Ta  Ta2  1  0.58534827  0.46034827  0.75000000  1
  Ta  Ta2  1  0.58534827  0.71034827  0.00000000  1
  Ta  Ta2  1  0.58534827  0.71034827  0.25000000  1
  Ta  Ta2  1  0.58534827  0.71034827  0.50000000  1
  Ta  Ta2  1  0.58534827  0.71034827  0.75000000  1
  Ta  Ta2  1  0.58534827  0.96034827  0.00000000  1
  Ta  Ta2  1  0.58534827  0.96034827  0.25000000  1
  Ta  Ta2  1  0.58534827  0.96034827  0.50000000  1
  Ta  Ta2  1  0.58534827  0.96034827  0.75000000  1
  Ta  Ta2  1  0.83534827  0.21034827  0.00000000  1
  Ta  Ta2  1  0.83534827  0.21034827  0.25000000  1
  Ta  Ta2  1  0.83534827  0.21034827  0.50000000  1
  Ta  Ta2  1  0.83534827  0.21034827  0.75000000  1
  Ta  Ta2  1  0.83534827  0.46034827  0.00000000  1
  Ta  Ta2  1  0.83534827  0.46034827  0.25000000  1
  Ta  Ta2  1  0.83534827  0.46034827  0.50000000  1
  Ta  Ta2  1  0.83534827  0.46034827  0.75000000  1
  Ta  Ta2  1  0.83534827  0.71034827  0.00000000  1
  Ta  Ta2  1  0.83534827  0.71034827  0.25000000  1
  Ta  Ta2  1  0.83534827  0.71034827  0.50000000  1
  Ta  Ta2  1  0.83534827  0.71034827  0.75000000  1
  Ta  Ta2  1  0.83534827  0.96034827  0.00000000  1
  Ta  Ta2  1  0.83534827  0.96034827  0.25000000  1
  Ta  Ta2  1  0.83534827  0.96034827  0.50000000  1
  Ta  Ta2  1  0.83534827  0.96034827  0.75000000  1
  Ta  Ta3  1  0.16465173  0.21034827  0.12500000  1
  Ta  Ta3  1  0.16465173  0.21034827  0.37500000  1
  Ta  Ta3  1  0.16465173  0.21034827  0.62500000  1
  Ta  Ta3  1  0.16465173  0.21034827  0.87500000  1
  Ta  Ta3  1  0.16465173  0.46034827  0.12500000  1
  Ta  Ta3  1  0.16465173  0.46034827  0.37500000  1
  Ta  Ta3  1  0.16465173  0.46034827  0.62500000  1
  Ta  Ta3  1  0.16465173  0.46034827  0.87500000  1
  Ta  Ta3  1  0.16465173  0.71034827  0.12500000  1
  Ta  Ta3  1  0.16465173  0.71034827  0.37500000  1
  Ta  Ta3  1  0.16465173  0.71034827  0.62500000  1
  Ta  Ta3  1  0.16465173  0.71034827  0.87500000  1
  Ta  Ta3  1  0.16465173  0.96034827  0.12500000  1
  Ta  Ta3  1  0.16465173  0.96034827  0.37500000  1
  Ta  Ta3  1  0.16465173  0.96034827  0.62500000  1
  Ta  Ta3  1  0.16465173  0.96034827  0.87500000  1
  Ta  Ta3  1  0.41465173  0.21034827  0.12500000  1
  Ta  Ta3  1  0.41465173  0.21034827  0.37500000  1
  Ta  Ta3  1  0.41465173  0.21034827  0.62500000  1
  Ta  Ta3  1  0.41465173  0.21034827  0.87500000  1
  Ta  Ta3  1  0.41465173  0.46034827  0.12500000  1
  Ta  Ta3  1  0.41465173  0.46034827  0.37500000  1
  Ta  Ta3  1  0.41465173  0.46034827  0.62500000  1
  Ta  Ta3  1  0.41465173  0.46034827  0.87500000  1
  Ta  Ta3  1  0.41465173  0.71034827  0.12500000  1
  Ta  Ta3  1  0.41465173  0.71034827  0.37500000  1
  Ta  Ta3  1  0.41465173  0.71034827  0.62500000  1
  Ta  Ta3  1  0.41465173  0.71034827  0.87500000  1
  Ta  Ta3  1  0.41465173  0.96034827  0.12500000  1
  Ta  Ta3  1  0.41465173  0.96034827  0.37500000  1
  Ta  Ta3  1  0.41465173  0.96034827  0.62500000  1
  Ta  Ta3  1  0.41465173  0.96034827  0.87500000  1
  Ta  Ta3  1  0.66465173  0.21034827  0.12500000  1
  Ta  Ta3  1  0.66465173  0.21034827  0.37500000  1
  Ta  Ta3  1  0.66465173  0.21034827  0.62500000  1
  Ta  Ta3  1  0.66465173  0.21034827  0.87500000  1
  Ta  Ta3  1  0.66465173  0.46034827  0.12500000  1
  Ta  Ta3  1  0.66465173  0.46034827  0.37500000  1
  Ta  Ta3  1  0.66465173  0.46034827  0.62500000  1
  Ta  Ta3  1  0.66465173  0.46034827  0.87500000  1
  Ta  Ta3  1  0.66465173  0.71034827  0.12500000  1
  Ta  Ta3  1  0.66465173  0.71034827  0.37500000  1
  Ta  Ta3  1  0.66465173  0.71034827  0.62500000  1
  Ta  Ta3  1  0.66465173  0.71034827  0.87500000  1
  Ta  Ta3  1  0.66465173  0.96034827  0.12500000  1
  Ta  Ta3  1  0.66465173  0.96034827  0.37500000  1
  Ta  Ta3  1  0.66465173  0.96034827  0.62500000  1
  Ta  Ta3  1  0.66465173  0.96034827  0.87500000  1
  Ta  Ta3  1  0.91465173  0.21034827  0.12500000  1
  Ta  Ta3  1  0.91465173  0.21034827  0.37500000  1
  Ta  Ta3  1  0.91465173  0.21034827  0.62500000  1
  Ta  Ta3  1  0.91465173  0.21034827  0.87500000  1
  Ta  Ta3  1  0.91465173  0.46034827  0.12500000  1
  Ta  Ta3  1  0.91465173  0.46034827  0.37500000  1
  Ta  Ta3  1  0.91465173  0.46034827  0.62500000  1
  Ta  Ta3  1  0.91465173  0.46034827  0.87500000  1
  Ta  Ta3  1  0.91465173  0.71034827  0.12500000  1
  Ta  Ta3  1  0.91465173  0.71034827  0.37500000  1
  Ta  Ta3  1  0.91465173  0.71034827  0.62500000  1
  Ta  Ta3  1  0.91465173  0.71034827  0.87500000  1
  Ta  Ta3  1  0.91465173  0.96034827  0.12500000  1
  Ta  Ta3  1  0.91465173  0.96034827  0.37500000  1
  Ta  Ta3  1  0.91465173  0.96034827  0.62500000  1
  Ta  Ta3  1  0.91465173  0.96034827  0.87500000  1
  Ta  Ta4  1  0.21034827  0.16465173  0.00000000  1
  Ta  Ta4  1  0.21034827  0.16465173  0.25000000  1
  Ta  Ta4  1  0.21034827  0.16465173  0.50000000  1
  Ta  Ta4  1  0.21034827  0.16465173  0.75000000  1
  Ta  Ta4  1  0.21034827  0.41465173  0.00000000  1
  Ta  Ta4  1  0.21034827  0.41465173  0.25000000  1
  Ta  Ta4  1  0.21034827  0.41465173  0.50000000  1
  Ta  Ta4  1  0.21034827  0.41465173  0.75000000  1
  Ta  Ta4  1  0.21034827  0.66465173  0.00000000  1
  Ta  Ta4  1  0.21034827  0.66465173  0.25000000  1
  Ta  Ta4  1  0.21034827  0.66465173  0.50000000  1
  Ta  Ta4  1  0.21034827  0.66465173  0.75000000  1
  Ta  Ta4  1  0.21034827  0.91465173  0.00000000  1
  Ta  Ta4  1  0.21034827  0.91465173  0.25000000  1
  Ta  Ta4  1  0.21034827  0.91465173  0.50000000  1
  Ta  Ta4  1  0.21034827  0.91465173  0.75000000  1
  Ta  Ta4  1  0.46034827  0.16465173  0.00000000  1
  Ta  Ta4  1  0.46034827  0.16465173  0.25000000  1
  Ta  Ta4  1  0.46034827  0.16465173  0.50000000  1
  Ta  Ta4  1  0.46034827  0.16465173  0.75000000  1
  Ta  Ta4  1  0.46034827  0.41465173  0.00000000  1
  Ta  Ta4  1  0.46034827  0.41465173  0.25000000  1
  Ta  Ta4  1  0.46034827  0.41465173  0.50000000  1
  Ta  Ta4  1  0.46034827  0.41465173  0.75000000  1
  Ta  Ta4  1  0.46034827  0.66465173  0.00000000  1
  Ta  Ta4  1  0.46034827  0.66465173  0.25000000  1
  Ta  Ta4  1  0.46034827  0.66465173  0.50000000  1
  Ta  Ta4  1  0.46034827  0.66465173  0.75000000  1
  Ta  Ta4  1  0.46034827  0.91465173  0.00000000  1
  Ta  Ta4  1  0.46034827  0.91465173  0.25000000  1
  Ta  Ta4  1  0.46034827  0.91465173  0.50000000  1
  Ta  Ta4  1  0.46034827  0.91465173  0.75000000  1
  Ta  Ta4  1  0.71034827  0.16465173  0.00000000  1
  Ta  Ta4  1  0.71034827  0.16465173  0.25000000  1
  Ta  Ta4  1  0.71034827  0.16465173  0.50000000  1
  Ta  Ta4  1  0.71034827  0.16465173  0.75000000  1
  Ta  Ta4  1  0.71034827  0.41465173  0.00000000  1
  Ta  Ta4  1  0.71034827  0.41465173  0.25000000  1
  Ta  Ta4  1  0.71034827  0.41465173  0.50000000  1
  Ta  Ta4  1  0.71034827  0.41465173  0.75000000  1
  Ta  Ta4  1  0.71034827  0.66465173  0.00000000  1
  Ta  Ta4  1  0.71034827  0.66465173  0.25000000  1
  Ta  Ta4  1  0.71034827  0.66465173  0.50000000  1
  Ta  Ta4  1  0.71034827  0.66465173  0.75000000  1
  Ta  Ta4  1  0.71034827  0.91465173  0.00000000  1
  Ta  Ta4  1  0.71034827  0.91465173  0.25000000  1
  Ta  Ta4  1  0.71034827  0.91465173  0.50000000  1
  Ta  Ta4  1  0.71034827  0.91465173  0.75000000  1
  Ta  Ta4  1  0.96034827  0.16465173  0.00000000  1
  Ta  Ta4  1  0.96034827  0.16465173  0.25000000  1
  Ta  Ta4  1  0.96034827  0.16465173  0.50000000  1
  Ta  Ta4  1  0.96034827  0.16465173  0.75000000  1
  Ta  Ta4  1  0.96034827  0.41465173  0.00000000  1
  Ta  Ta4  1  0.96034827  0.41465173  0.25000000  1
  Ta  Ta4  1  0.96034827  0.41465173  0.50000000  1
  Ta  Ta4  1  0.96034827  0.41465173  0.75000000  1
  Ta  Ta4  1  0.96034827  0.66465173  0.00000000  1
  Ta  Ta4  1  0.96034827  0.66465173  0.25000000  1
  Ta  Ta4  1  0.96034827  0.66465173  0.50000000  1
  Ta  Ta4  1  0.96034827  0.66465173  0.75000000  1
  Ta  Ta4  1  0.96034827  0.91465173  0.00000000  1
  Ta  Ta4  1  0.96034827  0.91465173  0.25000000  1
  Ta  Ta4  1  0.96034827  0.91465173  0.50000000  1
  Ta  Ta4  1  0.96034827  0.91465173  0.75000000  1
  Ta  Ta5  1  0.03965173  0.16465173  0.12500000  1
  Ta  Ta5  1  0.03965173  0.16465173  0.37500000  1
  Ta  Ta5  1  0.03965173  0.16465173  0.62500000  1
  Ta  Ta5  1  0.03965173  0.16465173  0.87500000  1
  Ta  Ta5  1  0.03965173  0.41465173  0.12500000  1
  Ta  Ta5  1  0.03965173  0.41465173  0.37500000  1
  Ta  Ta5  1  0.03965173  0.41465173  0.62500000  1
  Ta  Ta5  1  0.03965173  0.41465173  0.87500000  1
  Ta  Ta5  1  0.03965173  0.66465173  0.12500000  1
  Ta  Ta5  1  0.03965173  0.66465173  0.37500000  1
  Ta  Ta5  1  0.03965173  0.66465173  0.62500000  1
  Ta  Ta5  1  0.03965173  0.66465173  0.87500000  1
  Ta  Ta5  1  0.03965173  0.91465173  0.12500000  1
  Ta  Ta5  1  0.03965173  0.91465173  0.37500000  1
  Ta  Ta5  1  0.03965173  0.91465173  0.62500000  1
  Ta  Ta5  1  0.03965173  0.91465173  0.87500000  1
  Ta  Ta5  1  0.28965173  0.16465173  0.12500000  1
  Ta  Ta5  1  0.28965173  0.16465173  0.37500000  1
  Ta  Ta5  1  0.28965173  0.16465173  0.62500000  1
  Ta  Ta5  1  0.28965173  0.16465173  0.87500000  1
  Ta  Ta5  1  0.28965173  0.41465173  0.12500000  1
  Ta  Ta5  1  0.28965173  0.41465173  0.37500000  1
  Ta  Ta5  1  0.28965173  0.41465173  0.62500000  1
  Ta  Ta5  1  0.28965173  0.41465173  0.87500000  1
  Ta  Ta5  1  0.28965173  0.66465173  0.12500000  1
  Ta  Ta5  1  0.28965173  0.66465173  0.37500000  1
  Ta  Ta5  1  0.28965173  0.66465173  0.62500000  1
  Ta  Ta5  1  0.28965173  0.66465173  0.87500000  1
  Ta  Ta5  1  0.28965173  0.91465173  0.12500000  1
  Ta  Ta5  1  0.28965173  0.91465173  0.37500000  1
  Ta  Ta5  1  0.28965173  0.91465173  0.62500000  1
  Ta  Ta5  1  0.28965173  0.91465173  0.87500000  1
  Ta  Ta5  1  0.53965173  0.16465173  0.12500000  1
  Ta  Ta5  1  0.53965173  0.16465173  0.37500000  1
  Ta  Ta5  1  0.53965173  0.16465173  0.62500000  1
  Ta  Ta5  1  0.53965173  0.16465173  0.87500000  1
  Ta  Ta5  1  0.53965173  0.41465173  0.12500000  1
  Ta  Ta5  1  0.53965173  0.41465173  0.37500000  1
  Ta  Ta5  1  0.53965173  0.41465173  0.62500000  1
  Ta  Ta5  1  0.53965173  0.41465173  0.87500000  1
  Ta  Ta5  1  0.53965173  0.66465173  0.12500000  1
  Ta  Ta5  1  0.53965173  0.66465173  0.37500000  1
  Ta  Ta5  1  0.53965173  0.66465173  0.62500000  1
  Ta  Ta5  1  0.53965173  0.66465173  0.87500000  1
  Ta  Ta5  1  0.53965173  0.91465173  0.12500000  1
  Ta  Ta5  1  0.53965173  0.91465173  0.37500000  1
  Ta  Ta5  1  0.53965173  0.91465173  0.62500000  1
  Ta  Ta5  1  0.53965173  0.91465173  0.87500000  1
  Ta  Ta5  1  0.78965173  0.16465173  0.12500000  1
  Ta  Ta5  1  0.78965173  0.16465173  0.37500000  1
  Ta  Ta5  1  0.78965173  0.16465173  0.62500000  1
  Ta  Ta5  1  0.78965173  0.16465173  0.87500000  1
  Ta  Ta5  1  0.78965173  0.41465173  0.12500000  1
  Ta  Ta5  1  0.78965173  0.41465173  0.37500000  1
  Ta  Ta5  1  0.78965173  0.41465173  0.62500000  1
  Ta  Ta5  1  0.78965173  0.41465173  0.87500000  1
  Ta  Ta5  1  0.78965173  0.66465173  0.12500000  1
  Ta  Ta5  1  0.78965173  0.66465173  0.37500000  1
  Ta  Ta5  1  0.78965173  0.66465173  0.62500000  1
  Ta  Ta5  1  0.78965173  0.66465173  0.87500000  1
  Ta  Ta5  1  0.78965173  0.91465173  0.12500000  1
  Ta  Ta5  1  0.78965173  0.91465173  0.37500000  1
  Ta  Ta5  1  0.78965173  0.91465173  0.62500000  1
  Ta  Ta5  1  0.78965173  0.91465173  0.87500000  1
  Ta  Ta6  1  0.21034827  0.08534827  0.12500000  1
  Ta  Ta6  1  0.21034827  0.08534827  0.37500000  1
  Ta  Ta6  1  0.21034827  0.08534827  0.62500000  1
  Ta  Ta6  1  0.21034827  0.08534827  0.87500000  1
  Ta  Ta6  1  0.21034827  0.33534827  0.12500000  1
  Ta  Ta6  1  0.21034827  0.33534827  0.37500000  1
  Ta  Ta6  1  0.21034827  0.33534827  0.62500000  1
  Ta  Ta6  1  0.21034827  0.33534827  0.87500000  1
  Ta  Ta6  1  0.21034827  0.58534827  0.12500000  1
  Ta  Ta6  1  0.21034827  0.58534827  0.37500000  1
  Ta  Ta6  1  0.21034827  0.58534827  0.62500000  1
  Ta  Ta6  1  0.21034827  0.58534827  0.87500000  1
  Ta  Ta6  1  0.21034827  0.83534827  0.12500000  1
  Ta  Ta6  1  0.21034827  0.83534827  0.37500000  1
  Ta  Ta6  1  0.21034827  0.83534827  0.62500000  1
  Ta  Ta6  1  0.21034827  0.83534827  0.87500000  1
  Ta  Ta6  1  0.46034827  0.08534827  0.12500000  1
  Ta  Ta6  1  0.46034827  0.08534827  0.37500000  1
  Ta  Ta6  1  0.46034827  0.08534827  0.62500000  1
  Ta  Ta6  1  0.46034827  0.08534827  0.87500000  1
  Ta  Ta6  1  0.46034827  0.33534827  0.12500000  1
  Ta  Ta6  1  0.46034827  0.33534827  0.37500000  1
  Ta  Ta6  1  0.46034827  0.33534827  0.62500000  1
  Ta  Ta6  1  0.46034827  0.33534827  0.87500000  1
  Ta  Ta6  1  0.46034827  0.58534827  0.12500000  1
  Ta  Ta6  1  0.46034827  0.58534827  0.37500000  1
  Ta  Ta6  1  0.46034827  0.58534827  0.62500000  1
  Ta  Ta6  1  0.46034827  0.58534827  0.87500000  1
  Ta  Ta6  1  0.46034827  0.83534827  0.12500000  1
  Ta  Ta6  1  0.46034827  0.83534827  0.37500000  1
  Ta  Ta6  1  0.46034827  0.83534827  0.62500000  1
  Ta  Ta6  1  0.46034827  0.83534827  0.87500000  1
  Ta  Ta6  1  0.71034827  0.08534827  0.12500000  1
  Ta  Ta6  1  0.71034827  0.08534827  0.37500000  1
  Ta  Ta6  1  0.71034827  0.08534827  0.62500000  1
  Ta  Ta6  1  0.71034827  0.08534827  0.87500000  1
  Ta  Ta6  1  0.71034827  0.33534827  0.12500000  1
  Ta  Ta6  1  0.71034827  0.33534827  0.37500000  1
  Ta  Ta6  1  0.71034827  0.33534827  0.62500000  1
  Ta  Ta6  1  0.71034827  0.33534827  0.87500000  1
  Ta  Ta6  1  0.71034827  0.58534827  0.12500000  1
  Ta  Ta6  1  0.71034827  0.58534827  0.37500000  1
  Ta  Ta6  1  0.71034827  0.58534827  0.62500000  1
  Ta  Ta6  1  0.71034827  0.58534827  0.87500000  1
  Ta  Ta6  1  0.71034827  0.83534827  0.12500000  1
  Ta  Ta6  1  0.71034827  0.83534827  0.37500000  1
  Ta  Ta6  1  0.71034827  0.83534827  0.62500000  1
  Ta  Ta6  1  0.71034827  0.83534827  0.87500000  1
  Ta  Ta6  1  0.96034827  0.08534827  0.12500000  1
  Ta  Ta6  1  0.96034827  0.08534827  0.37500000  1
  Ta  Ta6  1  0.96034827  0.08534827  0.62500000  1
  Ta  Ta6  1  0.96034827  0.08534827  0.87500000  1
  Ta  Ta6  1  0.96034827  0.33534827  0.12500000  1
  Ta  Ta6  1  0.96034827  0.33534827  0.37500000  1
  Ta  Ta6  1  0.96034827  0.33534827  0.62500000  1
  Ta  Ta6  1  0.96034827  0.33534827  0.87500000  1
  Ta  Ta6  1  0.96034827  0.58534827  0.12500000  1
  Ta  Ta6  1  0.96034827  0.58534827  0.37500000  1
  Ta  Ta6  1  0.96034827  0.58534827  0.62500000  1
  Ta  Ta6  1  0.96034827  0.58534827  0.87500000  1
  Ta  Ta6  1  0.96034827  0.83534827  0.12500000  1
  Ta  Ta6  1  0.96034827  0.83534827  0.37500000  1
  Ta  Ta6  1  0.96034827  0.83534827  0.62500000  1
  Ta  Ta6  1  0.96034827  0.83534827  0.87500000  1
  Ta  Ta7  1  0.03965173  0.08534827  0.00000000  1
  Ta  Ta7  1  0.03965173  0.08534827  0.25000000  1
  Ta  Ta7  1  0.03965173  0.08534827  0.50000000  1
  Ta  Ta7  1  0.03965173  0.08534827  0.75000000  1
  Ta  Ta7  1  0.03965173  0.33534827  0.00000000  1
  Ta  Ta7  1  0.03965173  0.33534827  0.25000000  1
  Ta  Ta7  1  0.03965173  0.33534827  0.50000000  1
  Ta  Ta7  1  0.03965173  0.33534827  0.75000000  1
  Ta  Ta7  1  0.03965173  0.58534827  0.00000000  1
  Ta  Ta7  1  0.03965173  0.58534827  0.25000000  1
  Ta  Ta7  1  0.03965173  0.58534827  0.50000000  1
  Ta  Ta7  1  0.03965173  0.58534827  0.75000000  1
  Ta  Ta7  1  0.03965173  0.83534827  0.00000000  1
  Ta  Ta7  1  0.03965173  0.83534827  0.25000000  1
  Ta  Ta7  1  0.03965173  0.83534827  0.50000000  1
  Ta  Ta7  1  0.03965173  0.83534827  0.75000000  1
  Ta  Ta7  1  0.28965173  0.08534827  0.00000000  1
  Ta  Ta7  1  0.28965173  0.08534827  0.25000000  1
  Ta  Ta7  1  0.28965173  0.08534827  0.50000000  1
  Ta  Ta7  1  0.28965173  0.08534827  0.75000000  1
  Ta  Ta7  1  0.28965173  0.33534827  0.00000000  1
  Ta  Ta7  1  0.28965173  0.33534827  0.25000000  1
  Ta  Ta7  1  0.28965173  0.33534827  0.50000000  1
  Ta  Ta7  1  0.28965173  0.33534827  0.75000000  1
  Ta  Ta7  1  0.28965173  0.58534827  0.00000000  1
  Ta  Ta7  1  0.28965173  0.58534827  0.25000000  1
  Ta  Ta7  1  0.28965173  0.58534827  0.50000000  1
  Ta  Ta7  1  0.28965173  0.58534827  0.75000000  1
  Ta  Ta7  1  0.28965173  0.83534827  0.00000000  1
  Ta  Ta7  1  0.28965173  0.83534827  0.25000000  1
  Ta  Ta7  1  0.28965173  0.83534827  0.50000000  1
  Ta  Ta7  1  0.28965173  0.83534827  0.75000000  1
  Ta  Ta7  1  0.53965173  0.08534827  0.00000000  1
  Ta  Ta7  1  0.53965173  0.08534827  0.25000000  1
  Ta  Ta7  1  0.53965173  0.08534827  0.50000000  1
  Ta  Ta7  1  0.53965173  0.08534827  0.75000000  1
  Ta  Ta7  1  0.53965173  0.33534827  0.00000000  1
  Ta  Ta7  1  0.53965173  0.33534827  0.25000000  1
  Ta  Ta7  1  0.53965173  0.33534827  0.50000000  1
  Ta  Ta7  1  0.53965173  0.33534827  0.75000000  1
  Ta  Ta7  1  0.53965173  0.58534827  0.00000000  1
  Ta  Ta7  1  0.53965173  0.58534827  0.25000000  1
  Ta  Ta7  1  0.53965173  0.58534827  0.50000000  1
  Ta  Ta7  1  0.53965173  0.58534827  0.75000000  1
  Ta  Ta7  1  0.53965173  0.83534827  0.00000000  1
  Ta  Ta7  1  0.53965173  0.83534827  0.25000000  1
  Ta  Ta7  1  0.53965173  0.83534827  0.50000000  1
  Ta  Ta7  1  0.53965173  0.83534827  0.75000000  1
  Ta  Ta7  1  0.78965173  0.08534827  0.00000000  1
  Ta  Ta7  1  0.78965173  0.08534827  0.25000000  1
  Ta  Ta7  1  0.78965173  0.08534827  0.50000000  1
  Ta  Ta7  1  0.78965173  0.08534827  0.75000000  1
  Ta  Ta7  1  0.78965173  0.33534827  0.00000000  1
  Ta  Ta7  1  0.78965173  0.33534827  0.25000000  1
  Ta  Ta7  1  0.78965173  0.33534827  0.50000000  1
  Ta  Ta7  1  0.78965173  0.33534827  0.75000000  1
  Ta  Ta7  1  0.78965173  0.58534827  0.00000000  1
  Ta  Ta7  1  0.78965173  0.58534827  0.25000000  1
  Ta  Ta7  1  0.78965173  0.58534827  0.50000000  1
  Ta  Ta7  1  0.78965173  0.58534827  0.75000000  1
  Ta  Ta7  1  0.78965173  0.83534827  0.00000000  1
  Ta  Ta7  1  0.78965173  0.83534827  0.25000000  1
  Ta  Ta7  1  0.78965173  0.83534827  0.50000000  1
  Ta  Ta7  1  0.78965173  0.83534827  0.75000000  1
  Co  Co8  1  0.00000000  0.00000000  0.06250000  1
  Co  Co8  1  0.00000000  0.00000000  0.31250000  1
  Co  Co8  1  0.00000000  0.00000000  0.56250000  1
  Co  Co8  1  0.00000000  0.00000000  0.81250000  1
  Co  Co8  1  0.00000000  0.25000000  0.06250000  1
  Co  Co8  1  0.00000000  0.25000000  0.31250000  1
  Co  Co8  1  0.00000000  0.25000000  0.56250000  1
  Co  Co8  1  0.00000000  0.25000000  0.81250000  1
  Co  Co8  1  0.00000000  0.50000000  0.06250000  1
  Co  Co8  1  0.00000000  0.50000000  0.31250000  1
  Co  Co8  1  0.00000000  0.50000000  0.56250000  1
  Co  Co8  1  0.00000000  0.50000000  0.81250000  1
  Co  Co8  1  0.00000000  0.75000000  0.06250000  1
  Co  Co8  1  0.00000000  0.75000000  0.31250000  1
  Co  Co8  1  0.00000000  0.75000000  0.56250000  1
  Co  Co8  1  0.00000000  0.75000000  0.81250000  1
  Co  Co8  1  0.25000000  0.00000000  0.06250000  1
  Co  Co8  1  0.25000000  0.00000000  0.31250000  1
  Co  Co8  1  0.25000000  0.00000000  0.56250000  1
  Co  Co8  1  0.25000000  0.00000000  0.81250000  1
  Co  Co8  1  0.25000000  0.25000000  0.06250000  1
  Co  Co8  1  0.25000000  0.25000000  0.31250000  1
  Co  Co8  1  0.25000000  0.25000000  0.56250000  1
  Co  Co8  1  0.25000000  0.25000000  0.81250000  1
  Co  Co8  1  0.25000000  0.50000000  0.06250000  1
  Co  Co8  1  0.25000000  0.50000000  0.31250000  1
  Co  Co8  1  0.25000000  0.50000000  0.56250000  1
  Co  Co8  1  0.25000000  0.50000000  0.81250000  1
  Co  Co8  1  0.25000000  0.75000000  0.06250000  1
  Co  Co8  1  0.25000000  0.75000000  0.31250000  1
  Co  Co8  1  0.25000000  0.75000000  0.56250000  1
  Co  Co8  1  0.25000000  0.75000000  0.81250000  1
  Co  Co8  1  0.50000000  0.00000000  0.06250000  1
  Co  Co8  1  0.50000000  0.00000000  0.31250000  1
  Co  Co8  1  0.50000000  0.00000000  0.56250000  1
  Co  Co8  1  0.50000000  0.00000000  0.81250000  1
  Co  Co8  1  0.50000000  0.25000000  0.06250000  1
  Co  Co8  1  0.50000000  0.25000000  0.31250000  1
  Co  Co8  1  0.50000000  0.25000000  0.56250000  1
  Co  Co8  1  0.50000000  0.25000000  0.81250000  1
  Co  Co8  1  0.50000000  0.50000000  0.06250000  1
  Co  Co8  1  0.50000000  0.50000000  0.31250000  1
  Co  Co8  1  0.50000000  0.50000000  0.56250000  1
  Co  Co8  1  0.50000000  0.50000000  0.81250000  1
  Co  Co8  1  0.50000000  0.75000000  0.06250000  1
  Co  Co8  1  0.50000000  0.75000000  0.31250000  1
  Co  Co8  1  0.50000000  0.75000000  0.56250000  1
  Co  Co8  1  0.50000000  0.75000000  0.81250000  1
  Co  Co8  1  0.75000000  0.00000000  0.06250000  1
  Co  Co8  1  0.75000000  0.00000000  0.31250000  1
  Co  Co8  1  0.75000000  0.00000000  0.56250000  1
  Co  Co8  1  0.75000000  0.00000000  0.81250000  1
  Co  Co8  1  0.75000000  0.25000000  0.06250000  1
  Co  Co8  1  0.75000000  0.25000000  0.31250000  1
  Co  Co8  1  0.75000000  0.25000000  0.56250000  1
  Co  Co8  1  0.75000000  0.25000000  0.81250000  1
  Co  Co8  1  0.75000000  0.50000000  0.06250000  1
  Co  Co8  1  0.75000000  0.50000000  0.31250000  1
  Co  Co8  1  0.75000000  0.50000000  0.56250000  1
  Co  Co8  1  0.75000000  0.50000000  0.81250000  1
  Co  Co8  1  0.75000000  0.75000000  0.06250000  1
  Co  Co8  1  0.75000000  0.75000000  0.31250000  1
  Co  Co8  1  0.75000000  0.75000000  0.56250000  1
  Co  Co8  1  0.75000000  0.75000000  0.81250000  1
  Co  Co9  1  0.00000000  0.00000000  0.18750000  1
  Co  Co9  1  0.00000000  0.00000000  0.43750000  1
  Co  Co9  1  0.00000000  0.00000000  0.68750000  1
  Co  Co9  1  0.00000000  0.00000000  0.93750000  1
  Co  Co9  1  0.00000000  0.25000000  0.18750000  1
  Co  Co9  1  0.00000000  0.25000000  0.43750000  1
  Co  Co9  1  0.00000000  0.25000000  0.68750000  1
  Co  Co9  1  0.00000000  0.25000000  0.93750000  1
  Co  Co9  1  0.00000000  0.50000000  0.18750000  1
  Co  Co9  1  0.00000000  0.50000000  0.43750000  1
  Co  Co9  1  0.00000000  0.50000000  0.68750000  1
  Co  Co9  1  0.00000000  0.50000000  0.93750000  1
  Co  Co9  1  0.00000000  0.75000000  0.18750000  1
  Co  Co9  1  0.00000000  0.75000000  0.43750000  1
  Co  Co9  1  0.00000000  0.75000000  0.68750000  1
  Co  Co9  1  0.00000000  0.75000000  0.93750000  1
  Co  Co9  1  0.25000000  0.00000000  0.18750000  1
  Co  Co9  1  0.25000000  0.00000000  0.43750000  1
  Co  Co9  1  0.25000000  0.00000000  0.68750000  1
  Co  Co9  1  0.25000000  0.00000000  0.93750000  1
  Co  Co9  1  0.25000000  0.25000000  0.18750000  1
  Co  Co9  1  0.25000000  0.25000000  0.43750000  1
  Co  Co9  1  0.25000000  0.25000000  0.68750000  1
  Co  Co9  1  0.25000000  0.25000000  0.93750000  1
  Co  Co9  1  0.25000000  0.50000000  0.18750000  1
  Co  Co9  1  0.25000000  0.50000000  0.43750000  1
  Co  Co9  1  0.25000000  0.50000000  0.68750000  1
  Co  Co9  1  0.25000000  0.50000000  0.93750000  1
  Co  Co9  1  0.25000000  0.75000000  0.18750000  1
  Co  Co9  1  0.25000000  0.75000000  0.43750000  1
  Co  Co9  1  0.25000000  0.75000000  0.68750000  1
  Co  Co9  1  0.25000000  0.75000000  0.93750000  1
  Co  Co9  1  0.50000000  0.00000000  0.18750000  1
  Co  Co9  1  0.50000000  0.00000000  0.43750000  1
  Co  Co9  1  0.50000000  0.00000000  0.68750000  1
  Co  Co9  1  0.50000000  0.00000000  0.93750000  1
  Co  Co9  1  0.50000000  0.25000000  0.18750000  1
  Co  Co9  1  0.50000000  0.25000000  0.43750000  1
  Co  Co9  1  0.50000000  0.25000000  0.68750000  1
  Co  Co9  1  0.50000000  0.25000000  0.93750000  1
  Co  Co9  1  0.50000000  0.50000000  0.18750000  1
  Co  Co9  1  0.50000000  0.50000000  0.43750000  1
  Co  Co9  1  0.50000000  0.50000000  0.68750000  1
  Co  Co9  1  0.50000000  0.50000000  0.93750000  1
  Co  Co9  1  0.50000000  0.75000000  0.18750000  1
  Co  Co9  1  0.50000000  0.75000000  0.43750000  1
  Co  Co9  1  0.50000000  0.75000000  0.68750000  1
  Co  Co9  1  0.50000000  0.75000000  0.93750000  1
  Co  Co9  1  0.75000000  0.00000000  0.18750000  1
  Co  Co9  1  0.75000000  0.00000000  0.43750000  1
  Co  Co9  1  0.75000000  0.00000000  0.68750000  1
  Co  Co9  1  0.75000000  0.00000000  0.93750000  1
  Co  Co9  1  0.75000000  0.25000000  0.18750000  1
  Co  Co9  1  0.75000000  0.25000000  0.43750000  1
  Co  Co9  1  0.75000000  0.25000000  0.68750000  1
  Co  Co9  1  0.75000000  0.25000000  0.93750000  1
  Co  Co9  1  0.75000000  0.50000000  0.18750000  1
  Co  Co9  1  0.75000000  0.50000000  0.43750000  1
  Co  Co9  1  0.75000000  0.50000000  0.68750000  1
  Co  Co9  1  0.75000000  0.50000000  0.93750000  1
  Co  Co9  1  0.75000000  0.75000000  0.18750000  1
  Co  Co9  1  0.75000000  0.75000000  0.43750000  1
  Co  Co9  1  0.75000000  0.75000000  0.68750000  1
  Co  Co9  1  0.75000000  0.75000000  0.93750000  1
  Co  Co10  1  0.12500000  0.12500000  0.18750000  1
  Co  Co10  1  0.12500000  0.12500000  0.43750000  1
  Co  Co10  1  0.12500000  0.12500000  0.68750000  1
  Co  Co10  1  0.12500000  0.12500000  0.93750000  1
  Co  Co10  1  0.12500000  0.37500000  0.18750000  1
  Co  Co10  1  0.12500000  0.37500000  0.43750000  1
  Co  Co10  1  0.12500000  0.37500000  0.68750000  1
  Co  Co10  1  0.12500000  0.37500000  0.93750000  1
  Co  Co10  1  0.12500000  0.62500000  0.18750000  1
  Co  Co10  1  0.12500000  0.62500000  0.43750000  1
  Co  Co10  1  0.12500000  0.62500000  0.68750000  1
  Co  Co10  1  0.12500000  0.62500000  0.93750000  1
  Co  Co10  1  0.12500000  0.87500000  0.18750000  1
  Co  Co10  1  0.12500000  0.87500000  0.43750000  1
  Co  Co10  1  0.12500000  0.87500000  0.68750000  1
  Co  Co10  1  0.12500000  0.87500000  0.93750000  1
  Co  Co10  1  0.37500000  0.12500000  0.18750000  1
  Co  Co10  1  0.37500000  0.12500000  0.43750000  1
  Co  Co10  1  0.37500000  0.12500000  0.68750000  1
  Co  Co10  1  0.37500000  0.12500000  0.93750000  1
  Co  Co10  1  0.37500000  0.37500000  0.18750000  1
  Co  Co10  1  0.37500000  0.37500000  0.43750000  1
  Co  Co10  1  0.37500000  0.37500000  0.68750000  1
  Co  Co10  1  0.37500000  0.37500000  0.93750000  1
  Co  Co10  1  0.37500000  0.62500000  0.18750000  1
  Co  Co10  1  0.37500000  0.62500000  0.43750000  1
  Co  Co10  1  0.37500000  0.62500000  0.68750000  1
  Co  Co10  1  0.37500000  0.62500000  0.93750000  1
  Co  Co10  1  0.37500000  0.87500000  0.18750000  1
  Co  Co10  1  0.37500000  0.87500000  0.43750000  1
  Co  Co10  1  0.37500000  0.87500000  0.68750000  1
  Co  Co10  1  0.37500000  0.87500000  0.93750000  1
  Co  Co10  1  0.62500000  0.12500000  0.18750000  1
  Co  Co10  1  0.62500000  0.12500000  0.43750000  1
  Co  Co10  1  0.62500000  0.12500000  0.68750000  1
  Co  Co10  1  0.62500000  0.12500000  0.93750000  1
  Co  Co10  1  0.62500000  0.37500000  0.18750000  1
  Co  Co10  1  0.62500000  0.37500000  0.43750000  1
  Co  Co10  1  0.62500000  0.37500000  0.68750000  1
  Co  Co10  1  0.62500000  0.37500000  0.93750000  1
  Co  Co10  1  0.62500000  0.62500000  0.18750000  1
  Co  Co10  1  0.62500000  0.62500000  0.43750000  1
  Co  Co10  1  0.62500000  0.62500000  0.68750000  1
  Co  Co10  1  0.62500000  0.62500000  0.93750000  1
  Co  Co10  1  0.62500000  0.87500000  0.18750000  1
  Co  Co10  1  0.62500000  0.87500000  0.43750000  1
  Co  Co10  1  0.62500000  0.87500000  0.68750000  1
  Co  Co10  1  0.62500000  0.87500000  0.93750000  1
  Co  Co10  1  0.87500000  0.12500000  0.18750000  1
  Co  Co10  1  0.87500000  0.12500000  0.43750000  1
  Co  Co10  1  0.87500000  0.12500000  0.68750000  1
  Co  Co10  1  0.87500000  0.12500000  0.93750000  1
  Co  Co10  1  0.87500000  0.37500000  0.18750000  1
  Co  Co10  1  0.87500000  0.37500000  0.43750000  1
  Co  Co10  1  0.87500000  0.37500000  0.68750000  1
  Co  Co10  1  0.87500000  0.37500000  0.93750000  1
  Co  Co10  1  0.87500000  0.62500000  0.18750000  1
  Co  Co10  1  0.87500000  0.62500000  0.43750000  1
  Co  Co10  1  0.87500000  0.62500000  0.68750000  1
  Co  Co10  1  0.87500000  0.62500000  0.93750000  1
  Co  Co10  1  0.87500000  0.87500000  0.18750000  1
  Co  Co10  1  0.87500000  0.87500000  0.43750000  1
  Co  Co10  1  0.87500000  0.87500000  0.68750000  1
  Co  Co10  1  0.87500000  0.87500000  0.93750000  1
  Co  Co11  1  0.12500000  0.12500000  0.06250000  1
  Co  Co11  1  0.12500000  0.12500000  0.31250000  1
  Co  Co11  1  0.12500000  0.12500000  0.56250000  1
  Co  Co11  1  0.12500000  0.12500000  0.81250000  1
  Co  Co11  1  0.12500000  0.37500000  0.06250000  1
  Co  Co11  1  0.12500000  0.37500000  0.31250000  1
  Co  Co11  1  0.12500000  0.37500000  0.56250000  1
  Co  Co11  1  0.12500000  0.37500000  0.81250000  1
  Co  Co11  1  0.12500000  0.62500000  0.06250000  1
  Co  Co11  1  0.12500000  0.62500000  0.31250000  1
  Co  Co11  1  0.12500000  0.62500000  0.56250000  1
  Co  Co11  1  0.12500000  0.62500000  0.81250000  1
  Co  Co11  1  0.12500000  0.87500000  0.06250000  1
  Co  Co11  1  0.12500000  0.87500000  0.31250000  1
  Co  Co11  1  0.12500000  0.87500000  0.56250000  1
  Co  Co11  1  0.12500000  0.87500000  0.81250000  1
  Co  Co11  1  0.37500000  0.12500000  0.06250000  1
  Co  Co11  1  0.37500000  0.12500000  0.31250000  1
  Co  Co11  1  0.37500000  0.12500000  0.56250000  1
  Co  Co11  1  0.37500000  0.12500000  0.81250000  1
  Co  Co11  1  0.37500000  0.37500000  0.06250000  1
  Co  Co11  1  0.37500000  0.37500000  0.31250000  1
  Co  Co11  1  0.37500000  0.37500000  0.56250000  1
  Co  Co11  1  0.37500000  0.37500000  0.81250000  1
  Co  Co11  1  0.37500000  0.62500000  0.06250000  1
  Co  Co11  1  0.37500000  0.62500000  0.31250000  1
  Co  Co11  1  0.37500000  0.62500000  0.56250000  1
  Co  Co11  1  0.37500000  0.62500000  0.81250000  1
  Co  Co11  1  0.37500000  0.87500000  0.06250000  1
  Co  Co11  1  0.37500000  0.87500000  0.31250000  1
  Co  Co11  1  0.37500000  0.87500000  0.56250000  1
  Co  Co11  1  0.37500000  0.87500000  0.81250000  1
  Co  Co11  1  0.62500000  0.12500000  0.06250000  1
  Co  Co11  1  0.62500000  0.12500000  0.31250000  1
  Co  Co11  1  0.62500000  0.12500000  0.56250000  1
  Co  Co11  1  0.62500000  0.12500000  0.81250000  1
  Co  Co11  1  0.62500000  0.37500000  0.06250000  1
  Co  Co11  1  0.62500000  0.37500000  0.31250000  1
  Co  Co11  1  0.62500000  0.37500000  0.56250000  1
  Co  Co11  1  0.62500000  0.37500000  0.81250000  1
  Co  Co11  1  0.62500000  0.62500000  0.06250000  1
  Co  Co11  1  0.62500000  0.62500000  0.31250000  1
  Co  Co11  1  0.62500000  0.62500000  0.56250000  1
  Co  Co11  1  0.62500000  0.62500000  0.81250000  1
  Co  Co11  1  0.62500000  0.87500000  0.06250000  1
  Co  Co11  1  0.62500000  0.87500000  0.31250000  1
  Co  Co11  1  0.62500000  0.87500000  0.56250000  1
  Co  Co11  1  0.62500000  0.87500000  0.81250000  1
  Co  Co11  1  0.87500000  0.12500000  0.06250000  1
  Co  Co11  1  0.87500000  0.12500000  0.31250000  1
  Co  Co11  1  0.87500000  0.12500000  0.56250000  1
  Co  Co11  1  0.87500000  0.12500000  0.81250000  1
  Co  Co11  1  0.87500000  0.37500000  0.06250000  1
  Co  Co11  1  0.87500000  0.37500000  0.31250000  1
  Co  Co11  1  0.87500000  0.37500000  0.56250000  1
  Co  Co11  1  0.87500000  0.37500000  0.81250000  1
  Co  Co11  1  0.87500000  0.62500000  0.06250000  1
  Co  Co11  1  0.87500000  0.62500000  0.31250000  1
  Co  Co11  1  0.87500000  0.62500000  0.56250000  1
  Co  Co11  1  0.87500000  0.62500000  0.81250000  1
  Co  Co11  1  0.87500000  0.87500000  0.06250000  1
  Co  Co11  1  0.87500000  0.87500000  0.31250000  1
  Co  Co11  1  0.87500000  0.87500000  0.56250000  1
  Co  Co11  1  0.87500000  0.87500000  0.81250000  1
