# generated using pymatgen
data_Ta3Co
_symmetry_space_group_name_H-M   'P 1'
_cell_length_a   16.12000000
_cell_length_b   16.12000000
_cell_length_c   16.12000000
_cell_angle_alpha   90.00000000
_cell_angle_beta   90.00000000
_cell_angle_gamma   90.00000000
_symmetry_Int_Tables_number   1
_chemical_formula_structural   Ta3Co
_chemical_formula_sum   'Ta384 Co128'
_cell_volume   4188.85292800
_cell_formula_units_Z   128
loop_
 _symmetry_equiv_pos_site_id
 _symmetry_equiv_pos_as_xyz
  1  'x, y, z'
loop_
 _atom_site_type_symbol
 _atom_site_label
 _atom_site_symmetry_multiplicity
 _atom_site_fract_x
 _atom_site_fract_y
 _atom_site_fract_z
 _atom_site_occupancy
  Ta  Ta1  1  0.20825000  0.16650000  0.06250000  1
  Ta  Ta1  1  0.20825000  0.16650000  0.31250000  1
  Ta  Ta1  1  0.20825000  0.16650000  0.56250000  1
  Ta  Ta1  1  0.20825000  0.16650000  0.81250000  1
  Ta  Ta1  1  0.20825000  0.41650000  0.06250000  1
  Ta  Ta1  1  0.20825000  0.41650000  0.31250000  1
  Ta  Ta1  1  0.20825000  0.41650000  0.56250000  1
  Ta  Ta1  1  0.20825000  0.41650000  0.81250000  1
  Ta  Ta1  1  0.20825000  0.66650000  0.06250000  1
  Ta  Ta1  1  0.20825000  0.66650000  0.31250000  1
  Ta  Ta1  1  0.20825000  0.66650000  0.56250000  1
  Ta  Ta1  1  0.20825000  0.66650000  0.81250000  1
  Ta  Ta1  1  0.20825000  0.91650000  0.06250000  1
  Ta  Ta1  1  0.20825000  0.91650000  0.31250000  1
  Ta  Ta1  1  0.20825000  0.91650000  0.56250000  1
  Ta  Ta1  1  0.20825000  0.91650000  0.81250000  1
  Ta  Ta1  1  0.45825000  0.16650000  0.06250000  1
  Ta  Ta1  1  0.45825000  0.16650000  0.31250000  1
  Ta  Ta1  1  0.45825000  0.16650000  0.56250000  1
  Ta  Ta1  1  0.45825000  0.16650000  0.81250000  1
  Ta  Ta1  1  0.45825000  0.41650000  0.06250000  1
  Ta  Ta1  1  0.45825000  0.41650000  0.31250000  1
  Ta  Ta1  1  0.45825000  0.41650000  0.56250000  1
  Ta  Ta1  1  0.45825000  0.41650000  0.81250000  1
  Ta  Ta1  1  0.45825000  0.66650000  0.06250000  1
  Ta  Ta1  1  0.45825000  0.66650000  0.31250000  1
  Ta  Ta1  1  0.45825000  0.66650000  0.56250000  1
  Ta  Ta1  1  0.45825000  0.66650000  0.81250000  1
  Ta  Ta1  1  0.45825000  0.91650000  0.06250000  1
  Ta  Ta1  1  0.45825000  0.91650000  0.31250000  1
  Ta  Ta1  1  0.45825000  0.91650000  0.56250000  1
  Ta  Ta1  1  0.45825000  0.91650000  0.81250000  1
  Ta  Ta1  1  0.70825000  0.16650000  0.06250000  1
  Ta  Ta1  1  0.70825000  0.16650000  0.31250000  1
  Ta  Ta1  1  0.70825000  0.16650000  0.56250000  1
  Ta  Ta1  1  0.70825000  0.16650000  0.81250000  1
  Ta  Ta1  1  0.70825000  0.41650000  0.06250000  1
  Ta  Ta1  1  0.70825000  0.41650000  0.31250000  1
  Ta  Ta1  1  0.70825000  0.41650000  0.56250000  1
  Ta  Ta1  1  0.70825000  0.41650000  0.81250000  1
  Ta  Ta1  1  0.70825000  0.66650000  0.06250000  1
  Ta  Ta1  1  0.70825000  0.66650000  0.31250000  1
  Ta  Ta1  1  0.70825000  0.66650000  0.56250000  1
  Ta  Ta1  1  0.70825000  0.66650000  0.81250000  1
  Ta  Ta1  1  0.70825000  0.91650000  0.06250000  1
  Ta  Ta1  1  0.70825000  0.91650000  0.31250000  1
  Ta  Ta1  1  0.70825000  0.91650000  0.56250000  1
  Ta  Ta1  1  0.70825000  0.91650000  0.81250000  1
  Ta  Ta1  1  0.95825000  0.16650000  0.06250000  1
  Ta  Ta1  1  0.95825000  0.16650000  0.31250000  1
  Ta  Ta1  1  0.95825000  0.16650000  0.56250000  1
  Ta  Ta1  1  0.95825000  0.16650000  0.81250000  1
  Ta  Ta1  1  0.95825000  0.41650000  0.06250000  1
  Ta  Ta1  1  0.95825000  0.41650000  0.31250000  1
  Ta  Ta1  1  0.95825000  0.41650000  0.56250000  1
  Ta  Ta1  1  0.95825000  0.41650000  0.81250000  1
  Ta  Ta1  1  0.95825000  0.66650000  0.06250000  1
  Ta  Ta1  1  0.95825000  0.66650000  0.31250000  1
  Ta  Ta1  1  0.95825000  0.66650000  0.56250000  1
  Ta  Ta1  1  0.95825000  0.66650000  0.81250000  1
  Ta  Ta1  1  0.95825000  0.91650000  0.06250000  1
  Ta  Ta1  1  0.95825000  0.91650000  0.31250000  1
  Ta  Ta1  1  0.95825000  0.91650000  0.56250000  1
  Ta  Ta1  1  0.95825000  0.91650000  0.81250000  1
  Ta  Ta1  1  0.04175000  0.20825000  0.18750000  1
  Ta  Ta1  1  0.04175000  0.20825000  0.43750000  1
  Ta  Ta1  1  0.04175000  0.20825000  0.68750000  1
  Ta  Ta1  1  0.04175000  0.20825000  0.93750000  1
  Ta  Ta1  1  0.04175000  0.45825000  0.18750000  1
  Ta  Ta1  1  0.04175000  0.45825000  0.43750000  1
  Ta  Ta1  1  0.04175000  0.45825000  0.68750000  1
  Ta  Ta1  1  0.04175000  0.45825000  0.93750000  1
  Ta  Ta1  1  0.04175000  0.70825000  0.18750000  1
  Ta  Ta1  1  0.04175000  0.70825000  0.43750000  1
  Ta  Ta1  1  0.04175000  0.70825000  0.68750000  1
  Ta  Ta1  1  0.04175000  0.70825000  0.93750000  1
  Ta  Ta1  1  0.04175000  0.95825000  0.18750000  1
  Ta  Ta1  1  0.04175000  0.95825000  0.43750000  1
  Ta  Ta1  1  0.04175000  0.95825000  0.68750000  1
  Ta  Ta1  1  0.04175000  0.95825000  0.93750000  1
  Ta  Ta1  1  0.29175000  0.20825000  0.18750000  1
  Ta  Ta1  1  0.29175000  0.20825000  0.43750000  1
  Ta  Ta1  1  0.29175000  0.20825000  0.68750000  1
  Ta  Ta1  1  0.29175000  0.20825000  0.93750000  1
  Ta  Ta1  1  0.29175000  0.45825000  0.18750000  1
  Ta  Ta1  1  0.29175000  0.45825000  0.43750000  1
  Ta  Ta1  1  0.29175000  0.45825000  0.68750000  1
  Ta  Ta1  1  0.29175000  0.45825000  0.93750000  1
  Ta  Ta1  1  0.29175000  0.70825000  0.18750000  1
  Ta  Ta1  1  0.29175000  0.70825000  0.43750000  1
  Ta  Ta1  1  0.29175000  0.70825000  0.68750000  1
  Ta  Ta1  1  0.29175000  0.70825000  0.93750000  1
  Ta  Ta1  1  0.29175000  0.95825000  0.18750000  1
  Ta  Ta1  1  0.29175000  0.95825000  0.43750000  1
  Ta  Ta1  1  0.29175000  0.95825000  0.68750000  1
  Ta  Ta1  1  0.29175000  0.95825000  0.93750000  1
  Ta  Ta1  1  0.54175000  0.20825000  0.18750000  1
  Ta  Ta1  1  0.54175000  0.20825000  0.43750000  1
  Ta  Ta1  1  0.54175000  0.20825000  0.68750000  1
  Ta  Ta1  1  0.54175000  0.20825000  0.93750000  1
  Ta  Ta1  1  0.54175000  0.45825000  0.18750000  1
  Ta  Ta1  1  0.54175000  0.45825000  0.43750000  1
  Ta  Ta1  1  0.54175000  0.45825000  0.68750000  1
  Ta  Ta1  1  0.54175000  0.45825000  0.93750000  1
  Ta  Ta1  1  0.54175000  0.70825000  0.18750000  1
  Ta  Ta1  1  0.54175000  0.70825000  0.43750000  1
  Ta  Ta1  1  0.54175000  0.70825000  0.68750000  1
  Ta  Ta1  1  0.54175000  0.70825000  0.93750000  1
  Ta  Ta1  1  0.54175000  0.95825000  0.18750000  1
  Ta  Ta1  1  0.54175000  0.95825000  0.43750000  1
  Ta  Ta1  1  0.54175000  0.95825000  0.68750000  1
  Ta  Ta1  1  0.54175000  0.95825000  0.93750000  1
  Ta  Ta1  1  0.79175000  0.20825000  0.18750000  1
  Ta  Ta1  1  0.79175000  0.20825000  0.43750000  1
  Ta  Ta1  1  0.79175000  0.20825000  0.68750000  1
  Ta  Ta1  1  0.79175000  0.20825000  0.93750000  1
  Ta  Ta1  1  0.79175000  0.45825000  0.18750000  1
  Ta  Ta1  1  0.79175000  0.45825000  0.43750000  1
  Ta  Ta1  1  0.79175000  0.45825000  0.68750000  1
  Ta  Ta1  1  0.79175000  0.45825000  0.93750000  1
  Ta  Ta1  1  0.79175000  0.70825000  0.18750000  1
  Ta  Ta1  1  0.79175000  0.70825000  0.43750000  1
  Ta  Ta1  1  0.79175000  0.70825000  0.68750000  1
  Ta  Ta1  1  0.79175000  0.70825000  0.93750000  1
  Ta  Ta1  1  0.79175000  0.95825000  0.18750000  1
  Ta  Ta1  1  0.79175000  0.95825000  0.43750000  1
  Ta  Ta1  1  0.79175000  0.95825000  0.68750000  1
  Ta  Ta1  1  0.79175000  0.95825000  0.93750000  1
  Ta  Ta1  1  0.08350000  0.04175000  0.06250000  1
  Ta  Ta1  1  0.08350000  0.04175000  0.31250000  1
  Ta  Ta1  1  0.08350000  0.04175000  0.56250000  1
  Ta  Ta1  1  0.08350000  0.04175000  0.81250000  1
  Ta  Ta1  1  0.08350000  0.29175000  0.06250000  1
  Ta  Ta1  1  0.08350000  0.29175000  0.31250000  1
  Ta  Ta1  1  0.08350000  0.29175000  0.56250000  1
  Ta  Ta1  1  0.08350000  0.29175000  0.81250000  1
  Ta  Ta1  1  0.08350000  0.54175000  0.06250000  1
  Ta  Ta1  1  0.08350000  0.54175000  0.31250000  1
  Ta  Ta1  1  0.08350000  0.54175000  0.56250000  1
  Ta  Ta1  1  0.08350000  0.54175000  0.81250000  1
  Ta  Ta1  1  0.08350000  0.79175000  0.06250000  1
  Ta  Ta1  1  0.08350000  0.79175000  0.31250000  1
  Ta  Ta1  1  0.08350000  0.79175000  0.56250000  1
  Ta  Ta1  1  0.08350000  0.79175000  0.81250000  1
  Ta  Ta1  1  0.33350000  0.04175000  0.06250000  1
  Ta  Ta1  1  0.33350000  0.04175000  0.31250000  1
  Ta  Ta1  1  0.33350000  0.04175000  0.56250000  1
  Ta  Ta1  1  0.33350000  0.04175000  0.81250000  1
  Ta  Ta1  1  0.33350000  0.29175000  0.06250000  1
  Ta  Ta1  1  0.33350000  0.29175000  0.31250000  1
  Ta  Ta1  1  0.33350000  0.29175000  0.56250000  1
  Ta  Ta1  1  0.33350000  0.29175000  0.81250000  1
  Ta  Ta1  1  0.33350000  0.54175000  0.06250000  1
  Ta  Ta1  1  0.33350000  0.54175000  0.31250000  1
  Ta  Ta1  1  0.33350000  0.54175000  0.56250000  1
  Ta  Ta1  1  0.33350000  0.54175000  0.81250000  1
  Ta  Ta1  1  0.33350000  0.79175000  0.06250000  1
  Ta  Ta1  1  0.33350000  0.79175000  0.31250000  1
  Ta  Ta1  1  0.33350000  0.79175000  0.56250000  1
  Ta  Ta1  1  0.33350000  0.79175000  0.81250000  1
  Ta  Ta1  1  0.58350000  0.04175000  0.06250000  1
  Ta  Ta1  1  0.58350000  0.04175000  0.31250000  1
  Ta  Ta1  1  0.58350000  0.04175000  0.56250000  1
  Ta  Ta1  1  0.58350000  0.04175000  0.81250000  1
  Ta  Ta1  1  0.58350000  0.29175000  0.06250000  1
  Ta  Ta1  1  0.58350000  0.29175000  0.31250000  1
  Ta  Ta1  1  0.58350000  0.29175000  0.56250000  1
  Ta  Ta1  1  0.58350000  0.29175000  0.81250000  1
  Ta  Ta1  1  0.58350000  0.54175000  0.06250000  1
  Ta  Ta1  1  0.58350000  0.54175000  0.31250000  1
  Ta  Ta1  1  0.58350000  0.54175000  0.56250000  1
  Ta  Ta1  1  0.58350000  0.54175000  0.81250000  1
  Ta  Ta1  1  0.58350000  0.79175000  0.06250000  1
  Ta  Ta1  1  0.58350000  0.79175000  0.31250000  1
  Ta  Ta1  1  0.58350000  0.79175000  0.56250000  1
  Ta  Ta1  1  0.58350000  0.79175000  0.81250000  1
  Ta  Ta1  1  0.83350000  0.04175000  0.06250000  1
  Ta  Ta1  1  0.83350000  0.04175000  0.31250000  1
  Ta  Ta1  1  0.83350000  0.04175000  0.56250000  1
  Ta  Ta1  1  0.83350000  0.04175000  0.81250000  1
  Ta  Ta1  1  0.83350000  0.29175000  0.06250000  1
  Ta  Ta1  1  0.83350000  0.29175000  0.31250000  1
  Ta  Ta1  1  0.83350000  0.29175000  0.56250000  1
  Ta  Ta1  1  0.83350000  0.29175000  0.81250000  1
  Ta  Ta1  1  0.83350000  0.54175000  0.06250000  1
  Ta  Ta1  1  0.83350000  0.54175000  0.31250000  1
  Ta  Ta1  1  0.83350000  0.54175000  0.56250000  1
  Ta  Ta1  1  0.83350000  0.54175000  0.81250000  1
  Ta  Ta1  1  0.83350000  0.79175000  0.06250000  1
  Ta  Ta1  1  0.83350000  0.79175000  0.31250000  1
  Ta  Ta1  1  0.83350000  0.79175000  0.56250000  1
  Ta  Ta1  1  0.83350000  0.79175000  0.81250000  1
  Ta  Ta1  1  0.04175000  0.08350000  0.18750000  1
  Ta  Ta1  1  0.04175000  0.08350000  0.43750000  1
  Ta  Ta1  1  0.04175000  0.08350000  0.68750000  1
  Ta  Ta1  1  0.04175000  0.08350000  0.93750000  1
  Ta  Ta1  1  0.04175000  0.33350000  0.18750000  1
  Ta  Ta1  1  0.04175000  0.33350000  0.43750000  1
  Ta  Ta1  1  0.04175000  0.33350000  0.68750000  1
  Ta  Ta1  1  0.04175000  0.33350000  0.93750000  1
  Ta  Ta1  1  0.04175000  0.58350000  0.18750000  1
  Ta  Ta1  1  0.04175000  0.58350000  0.43750000  1
  Ta  Ta1  1  0.04175000  0.58350000  0.68750000  1
  Ta  Ta1  1  0.04175000  0.58350000  0.93750000  1
  Ta  Ta1  1  0.04175000  0.83350000  0.18750000  1
  Ta  Ta1  1  0.04175000  0.83350000  0.43750000  1
  Ta  Ta1  1  0.04175000  0.83350000  0.68750000  1
  Ta  Ta1  1  0.04175000  0.83350000  0.93750000  1
  Ta  Ta1  1  0.29175000  0.08350000  0.18750000  1
  Ta  Ta1  1  0.29175000  0.08350000  0.43750000  1
  Ta  Ta1  1  0.29175000  0.08350000  0.68750000  1
  Ta  Ta1  1  0.29175000  0.08350000  0.93750000  1
  Ta  Ta1  1  0.29175000  0.33350000  0.18750000  1
  Ta  Ta1  1  0.29175000  0.33350000  0.43750000  1
  Ta  Ta1  1  0.29175000  0.33350000  0.68750000  1
  Ta  Ta1  1  0.29175000  0.33350000  0.93750000  1
  Ta  Ta1  1  0.29175000  0.58350000  0.18750000  1
  Ta  Ta1  1  0.29175000  0.58350000  0.43750000  1
  Ta  Ta1  1  0.29175000  0.58350000  0.68750000  1
  Ta  Ta1  1  0.29175000  0.58350000  0.93750000  1
  Ta  Ta1  1  0.29175000  0.83350000  0.18750000  1
  Ta  Ta1  1  0.29175000  0.83350000  0.43750000  1
  Ta  Ta1  1  0.29175000  0.83350000  0.68750000  1
  Ta  Ta1  1  0.29175000  0.83350000  0.93750000  1
  Ta  Ta1  1  0.54175000  0.08350000  0.18750000  1
  Ta  Ta1  1  0.54175000  0.08350000  0.43750000  1
  Ta  Ta1  1  0.54175000  0.08350000  0.68750000  1
  Ta  Ta1  1  0.54175000  0.08350000  0.93750000  1
  Ta  Ta1  1  0.54175000  0.33350000  0.18750000  1
  Ta  Ta1  1  0.54175000  0.33350000  0.43750000  1
  Ta  Ta1  1  0.54175000  0.33350000  0.68750000  1
  Ta  Ta1  1  0.54175000  0.33350000  0.93750000  1
  Ta  Ta1  1  0.54175000  0.58350000  0.18750000  1
  Ta  Ta1  1  0.54175000  0.58350000  0.43750000  1
  Ta  Ta1  1  0.54175000  0.58350000  0.68750000  1
  Ta  Ta1  1  0.54175000  0.58350000  0.93750000  1
  Ta  Ta1  1  0.54175000  0.83350000  0.18750000  1
  Ta  Ta1  1  0.54175000  0.83350000  0.43750000  1
  Ta  Ta1  1  0.54175000  0.83350000  0.68750000  1
  Ta  Ta1  1  0.54175000  0.83350000  0.93750000  1
  Ta  Ta1  1  0.79175000  0.08350000  0.18750000  1
  Ta  Ta1  1  0.79175000  0.08350000  0.43750000  1
  Ta  Ta1  1  0.79175000  0.08350000  0.68750000  1
  Ta  Ta1  1  0.79175000  0.08350000  0.93750000  1
  Ta  Ta1  1  0.79175000  0.33350000  0.18750000  1
  Ta  Ta1  1  0.79175000  0.33350000  0.43750000  1
  Ta  Ta1  1  0.79175000  0.33350000  0.68750000  1
  Ta  Ta1  1  0.79175000  0.33350000  0.93750000  1
  Ta  Ta1  1  0.79175000  0.58350000  0.18750000  1
  Ta  Ta1  1  0.79175000  0.58350000  0.43750000  1
  Ta  Ta1  1  0.79175000  0.58350000  0.68750000  1
  Ta  Ta1  1  0.79175000  0.58350000  0.93750000  1
  Ta  Ta1  1  0.79175000  0.83350000  0.18750000  1
  Ta  Ta1  1  0.79175000  0.83350000  0.43750000  1
  Ta  Ta1  1  0.79175000  0.83350000  0.68750000  1
  Ta  Ta1  1  0.79175000  0.83350000  0.93750000  1
  Ta  Ta1  1  0.20825000  0.04175000  0.06250000  1
  Ta  Ta1  1  0.20825000  0.04175000  0.31250000  1
  Ta  Ta1  1  0.20825000  0.04175000  0.56250000  1
  Ta  Ta1  1  0.20825000  0.04175000  0.81250000  1
  Ta  Ta1  1  0.20825000  0.29175000  0.06250000  1
  Ta  Ta1  1  0.20825000  0.29175000  0.31250000  1
  Ta  Ta1  1  0.20825000  0.29175000  0.56250000  1
  Ta  Ta1  1  0.20825000  0.29175000  0.81250000  1
  Ta  Ta1  1  0.20825000  0.54175000  0.06250000  1
  Ta  Ta1  1  0.20825000  0.54175000  0.31250000  1
  Ta  Ta1  1  0.20825000  0.54175000  0.56250000  1
  Ta  Ta1  1  0.20825000  0.54175000  0.81250000  1
  Ta  Ta1  1  0.20825000  0.79175000  0.06250000  1
  Ta  Ta1  1  0.20825000  0.79175000  0.31250000  1
  Ta  Ta1  1  0.20825000  0.79175000  0.56250000  1
  Ta  Ta1  1  0.20825000  0.79175000  0.81250000  1
  Ta  Ta1  1  0.45825000  0.04175000  0.06250000  1
  Ta  Ta1  1  0.45825000  0.04175000  0.31250000  1
  Ta  Ta1  1  0.45825000  0.04175000  0.56250000  1
  Ta  Ta1  1  0.45825000  0.04175000  0.81250000  1
  Ta  Ta1  1  0.45825000  0.29175000  0.06250000  1
  Ta  Ta1  1  0.45825000  0.29175000  0.31250000  1
  Ta  Ta1  1  0.45825000  0.29175000  0.56250000  1
  Ta  Ta1  1  0.45825000  0.29175000  0.81250000  1
  Ta  Ta1  1  0.45825000  0.54175000  0.06250000  1
  Ta  Ta1  1  0.45825000  0.54175000  0.31250000  1
  Ta  Ta1  1  0.45825000  0.54175000  0.56250000  1
  Ta  Ta1  1  0.45825000  0.54175000  0.81250000  1
  Ta  Ta1  1  0.45825000  0.79175000  0.06250000  1
  Ta  Ta1  1  0.45825000  0.79175000  0.31250000  1
  Ta  Ta1  1  0.45825000  0.79175000  0.56250000  1
  Ta  Ta1  1  0.45825000  0.79175000  0.81250000  1
  Ta  Ta1  1  0.70825000  0.04175000  0.06250000  1
  Ta  Ta1  1  0.70825000  0.04175000  0.31250000  1
  Ta  Ta1  1  0.70825000  0.04175000  0.56250000  1
  Ta  Ta1  1  0.70825000  0.04175000  0.81250000  1
  Ta  Ta1  1  0.70825000  0.29175000  0.06250000  1
  Ta  Ta1  1  0.70825000  0.29175000  0.31250000  1
  Ta  Ta1  1  0.70825000  0.29175000  0.56250000  1
  Ta  Ta1  1  0.70825000  0.29175000  0.81250000  1
  Ta  Ta1  1  0.70825000  0.54175000  0.06250000  1
  Ta  Ta1  1  0.70825000  0.54175000  0.31250000  1
  Ta  Ta1  1  0.70825000  0.54175000  0.56250000  1
  Ta  Ta1  1  0.70825000  0.54175000  0.81250000  1
  Ta  Ta1  1  0.70825000  0.79175000  0.06250000  1
  Ta  Ta1  1  0.70825000  0.79175000  0.31250000  1
  Ta  Ta1  1  0.70825000  0.79175000  0.56250000  1
  Ta  Ta1  1  0.70825000  0.79175000  0.81250000  1
  Ta  Ta1  1  0.95825000  0.04175000  0.06250000  1
  Ta  Ta1  1  0.95825000  0.04175000  0.31250000  1
  Ta  Ta1  1  0.95825000  0.04175000  0.56250000  1
  Ta  Ta1  1  0.95825000  0.04175000  0.81250000  1
  Ta  Ta1  1  0.95825000  0.29175000  0.06250000  1
  Ta  Ta1  1  0.95825000  0.29175000  0.31250000  1
  Ta  Ta1  1  0.95825000  0.29175000  0.56250000  1
  Ta  Ta1  1  0.95825000  0.29175000  0.81250000  1
  Ta  Ta1  1  0.95825000  0.54175000  0.06250000  1
  Ta  Ta1  1  0.95825000  0.54175000  0.31250000  1
  Ta  Ta1  1  0.95825000  0.54175000  0.56250000  1
  Ta  Ta1  1  0.95825000  0.54175000  0.81250000  1
  Ta  Ta1  1  0.95825000  0.79175000  0.06250000  1
  Ta  Ta1  1  0.95825000  0.79175000  0.31250000  1
  Ta  Ta1  1  0.95825000  0.79175000  0.56250000  1
  Ta  Ta1  1  0.95825000  0.79175000  0.81250000  1
  Ta  Ta1  1  0.16650000  0.20825000  0.18750000  1
  Ta  Ta1  1  0.16650000  0.20825000  0.43750000  1
  Ta  Ta1  1  0.16650000  0.20825000  0.68750000  1
  Ta  Ta1  1  0.16650000  0.20825000  0.93750000  1
  Ta  Ta1  1  0.16650000  0.45825000  0.18750000  1
  Ta  Ta1  1  0.16650000  0.45825000  0.43750000  1
  Ta  Ta1  1  0.16650000  0.45825000  0.68750000  1
  Ta  Ta1  1  0.16650000  0.45825000  0.93750000  1
  Ta  Ta1  1  0.16650000  0.70825000  0.18750000  1
  Ta  Ta1  1  0.16650000  0.70825000  0.43750000  1
  Ta  Ta1  1  0.16650000  0.70825000  0.68750000  1
  Ta  Ta1  1  0.16650000  0.70825000  0.93750000  1
  Ta  Ta1  1  0.16650000  0.95825000  0.18750000  1
  Ta  Ta1  1  0.16650000  0.95825000  0.43750000  1
  Ta  Ta1  1  0.16650000  0.95825000  0.68750000  1
  Ta  Ta1  1  0.16650000  0.95825000  0.93750000  1
  Ta  Ta1  1  0.41650000  0.20825000  0.18750000  1
  Ta  Ta1  1  0.41650000  0.20825000  0.43750000  1
  Ta  Ta1  1  0.41650000  0.20825000  0.68750000  1
  Ta  Ta1  1  0.41650000  0.20825000  0.93750000  1
  Ta  Ta1  1  0.41650000  0.45825000  0.18750000  1
  Ta  Ta1  1  0.41650000  0.45825000  0.43750000  1
  Ta  Ta1  1  0.41650000  0.45825000  0.68750000  1
  Ta  Ta1  1  0.41650000  0.45825000  0.93750000  1
  Ta  Ta1  1  0.41650000  0.70825000  0.18750000  1
  Ta  Ta1  1  0.41650000  0.70825000  0.43750000  1
  Ta  Ta1  1  0.41650000  0.70825000  0.68750000  1
  Ta  Ta1  1  0.41650000  0.70825000  0.93750000  1
  Ta  Ta1  1  0.41650000  0.95825000  0.18750000  1
  Ta  Ta1  1  0.41650000  0.95825000  0.43750000  1
  Ta  Ta1  1  0.41650000  0.95825000  0.68750000  1
  Ta  Ta1  1  0.41650000  0.95825000  0.93750000  1
  Ta  Ta1  1  0.66650000  0.20825000  0.18750000  1
  Ta  Ta1  1  0.66650000  0.20825000  0.43750000  1
  Ta  Ta1  1  0.66650000  0.20825000  0.68750000  1
  Ta  Ta1  1  0.66650000  0.20825000  0.93750000  1
  Ta  Ta1  1  0.66650000  0.45825000  0.18750000  1
  Ta  Ta1  1  0.66650000  0.45825000  0.43750000  1
  Ta  Ta1  1  0.66650000  0.45825000  0.68750000  1
  Ta  Ta1  1  0.66650000  0.45825000  0.93750000  1
  Ta  Ta1  1  0.66650000  0.70825000  0.18750000  1
  Ta  Ta1  1  0.66650000  0.70825000  0.43750000  1
  Ta  Ta1  1  0.66650000  0.70825000  0.68750000  1
  Ta  Ta1  1  0.66650000  0.70825000  0.93750000  1
  Ta  Ta1  1  0.66650000  0.95825000  0.18750000  1
  Ta  Ta1  1  0.66650000  0.95825000  0.43750000  1
  Ta  Ta1  1  0.66650000  0.95825000  0.68750000  1
  Ta  Ta1  1  0.66650000  0.95825000  0.93750000  1
  Ta  Ta1  1  0.91650000  0.20825000  0.18750000  1
  Ta  Ta1  1  0.91650000  0.20825000  0.43750000  1
  Ta  Ta1  1  0.91650000  0.20825000  0.68750000  1
  Ta  Ta1  1  0.91650000  0.20825000  0.93750000  1
  Ta  Ta1  1  0.91650000  0.45825000  0.18750000  1
  Ta  Ta1  1  0.91650000  0.45825000  0.43750000  1
  Ta  Ta1  1  0.91650000  0.45825000  0.68750000  1
  Ta  Ta1  1  0.91650000  0.45825000  0.93750000  1
  Ta  Ta1  1  0.91650000  0.70825000  0.18750000  1
  Ta  Ta1  1  0.91650000  0.70825000  0.43750000  1
  Ta  Ta1  1  0.91650000  0.70825000  0.68750000  1
  Ta  Ta1  1  0.91650000  0.70825000  0.93750000  1
  Ta  Ta1  1  0.91650000  0.95825000  0.18750000  1
  Ta  Ta1  1  0.91650000  0.95825000  0.43750000  1
  Ta  Ta1  1  0.91650000  0.95825000  0.68750000  1
  Ta  Ta1  1  0.91650000  0.95825000  0.93750000  1
  Co  Co1  1  0.08333333  0.16666667  0.06250000  1
  Co  Co1  1  0.08333333  0.16666667  0.31250000  1
  Co  Co1  1  0.08333333  0.16666667  0.56250000  1
  Co  Co1  1  0.08333333  0.16666667  0.81250000  1
  Co  Co1  1  0.08333333  0.41666667  0.06250000  1
  Co  Co1  1  0.08333333  0.41666667  0.31250000  1
  Co  Co1  1  0.08333333  0.41666667  0.56250000  1
  Co  Co1  1  0.08333333  0.41666667  0.81250000  1
  Co  Co1  1  0.08333333  0.66666667  0.06250000  1
  Co  Co1  1  0.08333333  0.66666667  0.31250000  1
  Co  Co1  1  0.08333333  0.66666667  0.56250000  1
  Co  Co1  1  0.08333333  0.66666667  0.81250000  1
  Co  Co1  1  0.08333333  0.91666667  0.06250000  1
  Co  Co1  1  0.08333333  0.91666667  0.31250000  1
  Co  Co1  1  0.08333333  0.91666667  0.56250000  1
  Co  Co1  1  0.08333333  0.91666667  0.81250000  1
  Co  Co1  1  0.33333333  0.16666667  0.06250000  1
  Co  Co1  1  0.33333333  0.16666667  0.31250000  1
  Co  Co1  1  0.33333333  0.16666667  0.56250000  1
  Co  Co1  1  0.33333333  0.16666667  0.81250000  1
  Co  Co1  1  0.33333333  0.41666667  0.06250000  1
  Co  Co1  1  0.33333333  0.41666667  0.31250000  1
  Co  Co1  1  0.33333333  0.41666667  0.56250000  1
  Co  Co1  1  0.33333333  0.41666667  0.81250000  1
  Co  Co1  1  0.33333333  0.66666667  0.06250000  1
  Co  Co1  1  0.33333333  0.66666667  0.31250000  1
  Co  Co1  1  0.33333333  0.66666667  0.56250000  1
  Co  Co1  1  0.33333333  0.66666667  0.81250000  1
  Co  Co1  1  0.33333333  0.91666667  0.06250000  1
  Co  Co1  1  0.33333333  0.91666667  0.31250000  1
  Co  Co1  1  0.33333333  0.91666667  0.56250000  1
  Co  Co1  1  0.33333333  0.91666667  0.81250000  1
  Co  Co1  1  0.58333333  0.16666667  0.06250000  1
  Co  Co1  1  0.58333333  0.16666667  0.31250000  1
  Co  Co1  1  0.58333333  0.16666667  0.56250000  1
  Co  Co1  1  0.58333333  0.16666667  0.81250000  1
  Co  Co1  1  0.58333333  0.41666667  0.06250000  1
  Co  Co1  1  0.58333333  0.41666667  0.31250000  1
  Co  Co1  1  0.58333333  0.41666667  0.56250000  1
  Co  Co1  1  0.58333333  0.41666667  0.81250000  1
  Co  Co1  1  0.58333333  0.66666667  0.06250000  1
  Co  Co1  1  0.58333333  0.66666667  0.31250000  1
  Co  Co1  1  0.58333333  0.66666667  0.56250000  1
  Co  Co1  1  0.58333333  0.66666667  0.81250000  1
  Co  Co1  1  0.58333333  0.91666667  0.06250000  1
  Co  Co1  1  0.58333333  0.91666667  0.31250000  1
  Co  Co1  1  0.58333333  0.91666667  0.56250000  1
  Co  Co1  1  0.58333333  0.91666667  0.81250000  1
  Co  Co1  1  0.83333333  0.16666667  0.06250000  1
  Co  Co1  1  0.83333333  0.16666667  0.31250000  1
  Co  Co1  1  0.83333333  0.16666667  0.56250000  1
  Co  Co1  1  0.83333333  0.16666667  0.81250000  1
  Co  Co1  1  0.83333333  0.41666667  0.06250000  1
  Co  Co1  1  0.83333333  0.41666667  0.31250000  1
  Co  Co1  1  0.83333333  0.41666667  0.56250000  1
  Co  Co1  1  0.83333333  0.41666667  0.81250000  1
  Co  Co1  1  0.83333333  0.66666667  0.06250000  1
  Co  Co1  1  0.83333333  0.66666667  0.31250000  1
  Co  Co1  1  0.83333333  0.66666667  0.56250000  1
  Co  Co1  1  0.83333333  0.66666667  0.81250000  1
  Co  Co1  1  0.83333333  0.91666667  0.06250000  1
  Co  Co1  1  0.83333333  0.91666667  0.31250000  1
  Co  Co1  1  0.83333333  0.91666667  0.56250000  1
  Co  Co1  1  0.83333333  0.91666667  0.81250000  1
  Co  Co1  1  0.16666667  0.08333333  0.18750000  1
  Co  Co1  1  0.16666667  0.08333333  0.43750000  1
  Co  Co1  1  0.16666667  0.08333333  0.68750000  1
  Co  Co1  1  0.16666667  0.08333333  0.93750000  1
  Co  Co1  1  0.16666667  0.33333333  0.18750000  1
  Co  Co1  1  0.16666667  0.33333333  0.43750000  1
  Co  Co1  1  0.16666667  0.33333333  0.68750000  1
  Co  Co1  1  0.16666667  0.33333333  0.93750000  1
  Co  Co1  1  0.16666667  0.58333333  0.18750000  1
  Co  Co1  1  0.16666667  0.58333333  0.43750000  1
  Co  Co1  1  0.16666667  0.58333333  0.68750000  1
  Co  Co1  1  0.16666667  0.58333333  0.93750000  1
  Co  Co1  1  0.16666667  0.83333333  0.18750000  1
  Co  Co1  1  0.16666667  0.83333333  0.43750000  1
  Co  Co1  1  0.16666667  0.83333333  0.68750000  1
  Co  Co1  1  0.16666667  0.83333333  0.93750000  1
  Co  Co1  1  0.41666667  0.08333333  0.18750000  1
  Co  Co1  1  0.41666667  0.08333333  0.43750000  1
  Co  Co1  1  0.41666667  0.08333333  0.68750000  1
  Co  Co1  1  0.41666667  0.08333333  0.93750000  1
  Co  Co1  1  0.41666667  0.33333333  0.18750000  1
  Co  Co1  1  0.41666667  0.33333333  0.43750000  1
  Co  Co1  1  0.41666667  0.33333333  0.68750000  1
  Co  Co1  1  0.41666667  0.33333333  0.93750000  1
  Co  Co1  1  0.41666667  0.58333333  0.18750000  1
  Co  Co1  1  0.41666667  0.58333333  0.43750000  1
  Co  Co1  1  0.41666667  0.58333333  0.68750000  1
  Co  Co1  1  0.41666667  0.58333333  0.93750000  1
  Co  Co1  1  0.41666667  0.83333333  0.18750000  1
  Co  Co1  1  0.41666667  0.83333333  0.43750000  1
  Co  Co1  1  0.41666667  0.83333333  0.68750000  1
  Co  Co1  1  0.41666667  0.83333333  0.93750000  1
  Co  Co1  1  0.66666667  0.08333333  0.18750000  1
  Co  Co1  1  0.66666667  0.08333333  0.43750000  1
  Co  Co1  1  0.66666667  0.08333333  0.68750000  1
  Co  Co1  1  0.66666667  0.08333333  0.93750000  1
  Co  Co1  1  0.66666667  0.33333333  0.18750000  1
  Co  Co1  1  0.66666667  0.33333333  0.43750000  1
  Co  Co1  1  0.66666667  0.33333333  0.68750000  1
  Co  Co1  1  0.66666667  0.33333333  0.93750000  1
  Co  Co1  1  0.66666667  0.58333333  0.18750000  1
  Co  Co1  1  0.66666667  0.58333333  0.43750000  1
  Co  Co1  1  0.66666667  0.58333333  0.68750000  1
  Co  Co1  1  0.66666667  0.58333333  0.93750000  1
  Co  Co1  1  0.66666667  0.83333333  0.18750000  1
  Co  Co1  1  0.66666667  0.83333333  0.43750000  1
  Co  Co1  1  0.66666667  0.83333333  0.68750000  1
  Co  Co1  1  0.66666667  0.83333333  0.93750000  1
  Co  Co1  1  0.91666667  0.08333333  0.18750000  1
  Co  Co1  1  0.91666667  0.08333333  0.43750000  1
  Co  Co1  1  0.91666667  0.08333333  0.68750000  1
  Co  Co1  1  0.91666667  0.08333333  0.93750000  1
  Co  Co1  1  0.91666667  0.33333333  0.18750000  1
  Co  Co1  1  0.91666667  0.33333333  0.43750000  1
  Co  Co1  1  0.91666667  0.33333333  0.68750000  1
  Co  Co1  1  0.91666667  0.33333333  0.93750000  1
  Co  Co1  1  0.91666667  0.58333333  0.18750000  1
  Co  Co1  1  0.91666667  0.58333333  0.43750000  1
  Co  Co1  1  0.91666667  0.58333333  0.68750000  1
  Co  Co1  1  0.91666667  0.58333333  0.93750000  1
  Co  Co1  1  0.91666667  0.83333333  0.18750000  1
  Co  Co1  1  0.91666667  0.83333333  0.43750000  1
  Co  Co1  1  0.91666667  0.83333333  0.68750000  1
  Co  Co1  1  0.91666667  0.83333333  0.93750000  1
