# generated using pymatgen
data_Ta6Co7
_symmetry_space_group_name_H-M   'P 1'
_cell_length_a   14.79000000
_cell_length_b   14.79000000
_cell_length_c   79.32000000
_cell_angle_alpha   90.00000000
_cell_angle_beta   90.00000000
_cell_angle_gamma   90.00000000
_symmetry_Int_Tables_number   1
_chemical_formula_structural   Ta6Co7
_chemical_formula_sum   'Ta486 Co567'
_cell_volume   17350.78201200
_cell_formula_units_Z   81
loop_
 _symmetry_equiv_pos_site_id
 _symmetry_equiv_pos_as_xyz
  1  'x, y, z'
loop_
 _atom_site_type_symbol
 _atom_site_label
 _atom_site_symmetry_multiplicity
 _atom_site_fract_x
 _atom_site_fract_y
 _atom_site_fract_z
 _atom_site_occupancy
  Co  Co0  1  0.00000000  0.00000000  0.00000000  1
  Co  Co0  1  0.00000000  0.00000000  0.33333333  1
  Co  Co0  1  0.00000000  0.00000000  0.66666667  1
  Co  Co0  1  0.00000000  0.33333333  0.00000000  1
  Co  Co0  1  0.00000000  0.33333333  0.33333333  1
  Co  Co0  1  0.00000000  0.33333333  0.66666667  1
  Co  Co0  1  0.00000000  0.66666667  0.00000000  1
  Co  Co0  1  0.00000000  0.66666667  0.33333333  1
  Co  Co0  1  0.00000000  0.66666667  0.66666667  1
  Co  Co0  1  0.33333333  0.00000000  0.00000000  1
  Co  Co0  1  0.33333333  0.00000000  0.33333333  1
  Co  Co0  1  0.33333333  0.00000000  0.66666667  1
  Co  Co0  1  0.33333333  0.33333333  0.00000000  1
  Co  Co0  1  0.33333333  0.33333333  0.33333333  1
  Co  Co0  1  0.33333333  0.33333333  0.66666667  1
  Co  Co0  1  0.33333333  0.66666667  0.00000000  1
  Co  Co0  1  0.33333333  0.66666667  0.33333333  1
  Co  Co0  1  0.33333333  0.66666667  0.66666667  1
  Co  Co0  1  0.66666667  0.00000000  0.00000000  1
  Co  Co0  1  0.66666667  0.00000000  0.33333333  1
  Co  Co0  1  0.66666667  0.00000000  0.66666667  1
  Co  Co0  1  0.66666667  0.33333333  0.00000000  1
  Co  Co0  1  0.66666667  0.33333333  0.33333333  1
  Co  Co0  1  0.66666667  0.33333333  0.66666667  1
  Co  Co0  1  0.66666667  0.66666667  0.00000000  1
  Co  Co0  1  0.66666667  0.66666667  0.33333333  1
  Co  Co0  1  0.66666667  0.66666667  0.66666667  1
  Co  Co1  1  0.27795122  0.22256911  0.08564278  1
  Co  Co1  1  0.27795122  0.22256911  0.41897611  1
  Co  Co1  1  0.27795122  0.22256911  0.75230944  1
  Co  Co1  1  0.27795122  0.55590244  0.08564278  1
  Co  Co1  1  0.27795122  0.55590244  0.41897611  1
  Co  Co1  1  0.27795122  0.55590244  0.75230944  1
  Co  Co1  1  0.27795122  0.88923578  0.08564278  1
  Co  Co1  1  0.27795122  0.88923578  0.41897611  1
  Co  Co1  1  0.27795122  0.88923578  0.75230944  1
  Co  Co1  1  0.61128456  0.22256911  0.08564278  1
  Co  Co1  1  0.61128456  0.22256911  0.41897611  1
  Co  Co1  1  0.61128456  0.22256911  0.75230944  1
  Co  Co1  1  0.61128456  0.55590244  0.08564278  1
  Co  Co1  1  0.61128456  0.55590244  0.41897611  1
  Co  Co1  1  0.61128456  0.55590244  0.75230944  1
  Co  Co1  1  0.61128456  0.88923578  0.08564278  1
  Co  Co1  1  0.61128456  0.88923578  0.41897611  1
  Co  Co1  1  0.61128456  0.88923578  0.75230944  1
  Co  Co1  1  0.94461789  0.22256911  0.08564278  1
  Co  Co1  1  0.94461789  0.22256911  0.41897611  1
  Co  Co1  1  0.94461789  0.22256911  0.75230944  1
  Co  Co1  1  0.94461789  0.55590244  0.08564278  1
  Co  Co1  1  0.94461789  0.55590244  0.41897611  1
  Co  Co1  1  0.94461789  0.55590244  0.75230944  1
  Co  Co1  1  0.94461789  0.88923578  0.08564278  1
  Co  Co1  1  0.94461789  0.88923578  0.41897611  1
  Co  Co1  1  0.94461789  0.88923578  0.75230944  1
  Co  Co2  1  0.27795122  0.05538211  0.08564278  1
  Co  Co2  1  0.27795122  0.05538211  0.41897611  1
  Co  Co2  1  0.27795122  0.05538211  0.75230944  1
  Co  Co2  1  0.27795122  0.38871544  0.08564278  1
  Co  Co2  1  0.27795122  0.38871544  0.41897611  1
  Co  Co2  1  0.27795122  0.38871544  0.75230944  1
  Co  Co2  1  0.27795122  0.72204878  0.08564278  1
  Co  Co2  1  0.27795122  0.72204878  0.41897611  1
  Co  Co2  1  0.27795122  0.72204878  0.75230944  1
  Co  Co2  1  0.61128456  0.05538211  0.08564278  1
  Co  Co2  1  0.61128456  0.05538211  0.41897611  1
  Co  Co2  1  0.61128456  0.05538211  0.75230944  1
  Co  Co2  1  0.61128456  0.38871544  0.08564278  1
  Co  Co2  1  0.61128456  0.38871544  0.41897611  1
  Co  Co2  1  0.61128456  0.38871544  0.75230944  1
  Co  Co2  1  0.61128456  0.72204878  0.08564278  1
  Co  Co2  1  0.61128456  0.72204878  0.41897611  1
  Co  Co2  1  0.61128456  0.72204878  0.75230944  1
  Co  Co2  1  0.94461789  0.05538211  0.08564278  1
  Co  Co2  1  0.94461789  0.05538211  0.41897611  1
  Co  Co2  1  0.94461789  0.05538211  0.75230944  1
  Co  Co2  1  0.94461789  0.38871544  0.08564278  1
  Co  Co2  1  0.94461789  0.38871544  0.41897611  1
  Co  Co2  1  0.94461789  0.38871544  0.75230944  1
  Co  Co2  1  0.94461789  0.72204878  0.08564278  1
  Co  Co2  1  0.94461789  0.72204878  0.41897611  1
  Co  Co2  1  0.94461789  0.72204878  0.75230944  1
  Co  Co3  1  0.11076422  0.05538211  0.08564278  1
  Co  Co3  1  0.11076422  0.05538211  0.41897611  1
  Co  Co3  1  0.11076422  0.05538211  0.75230944  1
  Co  Co3  1  0.11076422  0.38871544  0.08564278  1
  Co  Co3  1  0.11076422  0.38871544  0.41897611  1
  Co  Co3  1  0.11076422  0.38871544  0.75230944  1
  Co  Co3  1  0.11076422  0.72204878  0.08564278  1
  Co  Co3  1  0.11076422  0.72204878  0.41897611  1
  Co  Co3  1  0.11076422  0.72204878  0.75230944  1
  Co  Co3  1  0.44409756  0.05538211  0.08564278  1
  Co  Co3  1  0.44409756  0.05538211  0.41897611  1
  Co  Co3  1  0.44409756  0.05538211  0.75230944  1
  Co  Co3  1  0.44409756  0.38871544  0.08564278  1
  Co  Co3  1  0.44409756  0.38871544  0.41897611  1
  Co  Co3  1  0.44409756  0.38871544  0.75230944  1
  Co  Co3  1  0.44409756  0.72204878  0.08564278  1
  Co  Co3  1  0.44409756  0.72204878  0.41897611  1
  Co  Co3  1  0.44409756  0.72204878  0.75230944  1
  Co  Co3  1  0.77743089  0.05538211  0.08564278  1
  Co  Co3  1  0.77743089  0.05538211  0.41897611  1
  Co  Co3  1  0.77743089  0.05538211  0.75230944  1
  Co  Co3  1  0.77743089  0.38871544  0.08564278  1
  Co  Co3  1  0.77743089  0.38871544  0.41897611  1
  Co  Co3  1  0.77743089  0.38871544  0.75230944  1
  Co  Co3  1  0.77743089  0.72204878  0.08564278  1
  Co  Co3  1  0.77743089  0.72204878  0.41897611  1
  Co  Co3  1  0.77743089  0.72204878  0.75230944  1
  Co  Co4  1  0.11145800  0.05572900  0.02546833  1
  Co  Co4  1  0.11145800  0.05572900  0.35880167  1
  Co  Co4  1  0.11145800  0.05572900  0.69213500  1
  Co  Co4  1  0.11145800  0.38906233  0.02546833  1
  Co  Co4  1  0.11145800  0.38906233  0.35880167  1
  Co  Co4  1  0.11145800  0.38906233  0.69213500  1
  Co  Co4  1  0.11145800  0.72239567  0.02546833  1
  Co  Co4  1  0.11145800  0.72239567  0.35880167  1
  Co  Co4  1  0.11145800  0.72239567  0.69213500  1
  Co  Co4  1  0.44479133  0.05572900  0.02546833  1
  Co  Co4  1  0.44479133  0.05572900  0.35880167  1
  Co  Co4  1  0.44479133  0.05572900  0.69213500  1
  Co  Co4  1  0.44479133  0.38906233  0.02546833  1
  Co  Co4  1  0.44479133  0.38906233  0.35880167  1
  Co  Co4  1  0.44479133  0.38906233  0.69213500  1
  Co  Co4  1  0.44479133  0.72239567  0.02546833  1
  Co  Co4  1  0.44479133  0.72239567  0.35880167  1
  Co  Co4  1  0.44479133  0.72239567  0.69213500  1
  Co  Co4  1  0.77812467  0.05572900  0.02546833  1
  Co  Co4  1  0.77812467  0.05572900  0.35880167  1
  Co  Co4  1  0.77812467  0.05572900  0.69213500  1
  Co  Co4  1  0.77812467  0.38906233  0.02546833  1
  Co  Co4  1  0.77812467  0.38906233  0.35880167  1
  Co  Co4  1  0.77812467  0.38906233  0.69213500  1
  Co  Co4  1  0.77812467  0.72239567  0.02546833  1
  Co  Co4  1  0.77812467  0.72239567  0.35880167  1
  Co  Co4  1  0.77812467  0.72239567  0.69213500  1
  Co  Co5  1  0.27760433  0.22187533  0.02546833  1
  Co  Co5  1  0.27760433  0.22187533  0.35880167  1
  Co  Co5  1  0.27760433  0.22187533  0.69213500  1
  Co  Co5  1  0.27760433  0.55520867  0.02546833  1
  Co  Co5  1  0.27760433  0.55520867  0.35880167  1
  Co  Co5  1  0.27760433  0.55520867  0.69213500  1
  Co  Co5  1  0.27760433  0.88854200  0.02546833  1
  Co  Co5  1  0.27760433  0.88854200  0.35880167  1
  Co  Co5  1  0.27760433  0.88854200  0.69213500  1
  Co  Co5  1  0.61093767  0.22187533  0.02546833  1
  Co  Co5  1  0.61093767  0.22187533  0.35880167  1
  Co  Co5  1  0.61093767  0.22187533  0.69213500  1
  Co  Co5  1  0.61093767  0.55520867  0.02546833  1
  Co  Co5  1  0.61093767  0.55520867  0.35880167  1
  Co  Co5  1  0.61093767  0.55520867  0.69213500  1
  Co  Co5  1  0.61093767  0.88854200  0.02546833  1
  Co  Co5  1  0.61093767  0.88854200  0.35880167  1
  Co  Co5  1  0.61093767  0.88854200  0.69213500  1
  Co  Co5  1  0.94427100  0.22187533  0.02546833  1
  Co  Co5  1  0.94427100  0.22187533  0.35880167  1
  Co  Co5  1  0.94427100  0.22187533  0.69213500  1
  Co  Co5  1  0.94427100  0.55520867  0.02546833  1
  Co  Co5  1  0.94427100  0.55520867  0.35880167  1
  Co  Co5  1  0.94427100  0.55520867  0.69213500  1
  Co  Co5  1  0.94427100  0.88854200  0.02546833  1
  Co  Co5  1  0.94427100  0.88854200  0.35880167  1
  Co  Co5  1  0.94427100  0.88854200  0.69213500  1
  Co  Co6  1  0.27760433  0.05572900  0.02546833  1
  Co  Co6  1  0.27760433  0.05572900  0.35880167  1
  Co  Co6  1  0.27760433  0.05572900  0.69213500  1
  Co  Co6  1  0.27760433  0.38906233  0.02546833  1
  Co  Co6  1  0.27760433  0.38906233  0.35880167  1
  Co  Co6  1  0.27760433  0.38906233  0.69213500  1
  Co  Co6  1  0.27760433  0.72239567  0.02546833  1
  Co  Co6  1  0.27760433  0.72239567  0.35880167  1
  Co  Co6  1  0.27760433  0.72239567  0.69213500  1
  Co  Co6  1  0.61093767  0.05572900  0.02546833  1
  Co  Co6  1  0.61093767  0.05572900  0.35880167  1
  Co  Co6  1  0.61093767  0.05572900  0.69213500  1
  Co  Co6  1  0.61093767  0.38906233  0.02546833  1
  Co  Co6  1  0.61093767  0.38906233  0.35880167  1
  Co  Co6  1  0.61093767  0.38906233  0.69213500  1
  Co  Co6  1  0.61093767  0.72239567  0.02546833  1
  Co  Co6  1  0.61093767  0.72239567  0.35880167  1
  Co  Co6  1  0.61093767  0.72239567  0.69213500  1
  Co  Co6  1  0.94427100  0.05572900  0.02546833  1
  Co  Co6  1  0.94427100  0.05572900  0.35880167  1
  Co  Co6  1  0.94427100  0.05572900  0.69213500  1
  Co  Co6  1  0.94427100  0.38906233  0.02546833  1
  Co  Co6  1  0.94427100  0.38906233  0.35880167  1
  Co  Co6  1  0.94427100  0.38906233  0.69213500  1
  Co  Co6  1  0.94427100  0.72239567  0.02546833  1
  Co  Co6  1  0.94427100  0.72239567  0.35880167  1
  Co  Co6  1  0.94427100  0.72239567  0.69213500  1
  Co  Co7  1  0.22222222  0.11111111  0.11111111  1
  Co  Co7  1  0.22222222  0.11111111  0.44444444  1
  Co  Co7  1  0.22222222  0.11111111  0.77777778  1
  Co  Co7  1  0.22222222  0.44444444  0.11111111  1
  Co  Co7  1  0.22222222  0.44444444  0.44444444  1
  Co  Co7  1  0.22222222  0.44444444  0.77777778  1
  Co  Co7  1  0.22222222  0.77777778  0.11111111  1
  Co  Co7  1  0.22222222  0.77777778  0.44444444  1
  Co  Co7  1  0.22222222  0.77777778  0.77777778  1
  Co  Co7  1  0.55555556  0.11111111  0.11111111  1
  Co  Co7  1  0.55555556  0.11111111  0.44444444  1
  Co  Co7  1  0.55555556  0.11111111  0.77777778  1
  Co  Co7  1  0.55555556  0.44444444  0.11111111  1
  Co  Co7  1  0.55555556  0.44444444  0.44444444  1
  Co  Co7  1  0.55555556  0.44444444  0.77777778  1
  Co  Co7  1  0.55555556  0.77777778  0.11111111  1
  Co  Co7  1  0.55555556  0.77777778  0.44444444  1
  Co  Co7  1  0.55555556  0.77777778  0.77777778  1
  Co  Co7  1  0.88888889  0.11111111  0.11111111  1
  Co  Co7  1  0.88888889  0.11111111  0.44444444  1
  Co  Co7  1  0.88888889  0.11111111  0.77777778  1
  Co  Co7  1  0.88888889  0.44444444  0.11111111  1
  Co  Co7  1  0.88888889  0.44444444  0.44444444  1
  Co  Co7  1  0.88888889  0.44444444  0.77777778  1
  Co  Co7  1  0.88888889  0.77777778  0.11111111  1
  Co  Co7  1  0.88888889  0.77777778  0.44444444  1
  Co  Co7  1  0.88888889  0.77777778  0.77777778  1
  Co  Co8  1  0.16684011  0.00034689  0.19675389  1
  Co  Co8  1  0.16684011  0.00034689  0.53008722  1
  Co  Co8  1  0.16684011  0.00034689  0.86342056  1
  Co  Co8  1  0.16684011  0.33368022  0.19675389  1
  Co  Co8  1  0.16684011  0.33368022  0.53008722  1
  Co  Co8  1  0.16684011  0.33368022  0.86342056  1
  Co  Co8  1  0.16684011  0.66701356  0.19675389  1
  Co  Co8  1  0.16684011  0.66701356  0.53008722  1
  Co  Co8  1  0.16684011  0.66701356  0.86342056  1
  Co  Co8  1  0.50017344  0.00034689  0.19675389  1
  Co  Co8  1  0.50017344  0.00034689  0.53008722  1
  Co  Co8  1  0.50017344  0.00034689  0.86342056  1
  Co  Co8  1  0.50017344  0.33368022  0.19675389  1
  Co  Co8  1  0.50017344  0.33368022  0.53008722  1
  Co  Co8  1  0.50017344  0.33368022  0.86342056  1
  Co  Co8  1  0.50017344  0.66701356  0.19675389  1
  Co  Co8  1  0.50017344  0.66701356  0.53008722  1
  Co  Co8  1  0.50017344  0.66701356  0.86342056  1
  Co  Co8  1  0.83350678  0.00034689  0.19675389  1
  Co  Co8  1  0.83350678  0.00034689  0.53008722  1
  Co  Co8  1  0.83350678  0.00034689  0.86342056  1
  Co  Co8  1  0.83350678  0.33368022  0.19675389  1
  Co  Co8  1  0.83350678  0.33368022  0.53008722  1
  Co  Co8  1  0.83350678  0.33368022  0.86342056  1
  Co  Co8  1  0.83350678  0.66701356  0.19675389  1
  Co  Co8  1  0.83350678  0.66701356  0.53008722  1
  Co  Co8  1  0.83350678  0.66701356  0.86342056  1
  Co  Co9  1  0.16684011  0.16649322  0.19675389  1
  Co  Co9  1  0.16684011  0.16649322  0.53008722  1
  Co  Co9  1  0.16684011  0.16649322  0.86342056  1
  Co  Co9  1  0.16684011  0.49982656  0.19675389  1
  Co  Co9  1  0.16684011  0.49982656  0.53008722  1
  Co  Co9  1  0.16684011  0.49982656  0.86342056  1
  Co  Co9  1  0.16684011  0.83315989  0.19675389  1
  Co  Co9  1  0.16684011  0.83315989  0.53008722  1
  Co  Co9  1  0.16684011  0.83315989  0.86342056  1
  Co  Co9  1  0.50017344  0.16649322  0.19675389  1
  Co  Co9  1  0.50017344  0.16649322  0.53008722  1
  Co  Co9  1  0.50017344  0.16649322  0.86342056  1
  Co  Co9  1  0.50017344  0.49982656  0.19675389  1
  Co  Co9  1  0.50017344  0.49982656  0.53008722  1
  Co  Co9  1  0.50017344  0.49982656  0.86342056  1
  Co  Co9  1  0.50017344  0.83315989  0.19675389  1
  Co  Co9  1  0.50017344  0.83315989  0.53008722  1
  Co  Co9  1  0.50017344  0.83315989  0.86342056  1
  Co  Co9  1  0.83350678  0.16649322  0.19675389  1
  Co  Co9  1  0.83350678  0.16649322  0.53008722  1
  Co  Co9  1  0.83350678  0.16649322  0.86342056  1
  Co  Co9  1  0.83350678  0.49982656  0.19675389  1
  Co  Co9  1  0.83350678  0.49982656  0.53008722  1
  Co  Co9  1  0.83350678  0.49982656  0.86342056  1
  Co  Co9  1  0.83350678  0.83315989  0.19675389  1
  Co  Co9  1  0.83350678  0.83315989  0.53008722  1
  Co  Co9  1  0.83350678  0.83315989  0.86342056  1
  Co  Co10  1  0.33298644  0.16649322  0.19675389  1
  Co  Co10  1  0.33298644  0.16649322  0.53008722  1
  Co  Co10  1  0.33298644  0.16649322  0.86342056  1
  Co  Co10  1  0.33298644  0.49982656  0.19675389  1
  Co  Co10  1  0.33298644  0.49982656  0.53008722  1
  Co  Co10  1  0.33298644  0.49982656  0.86342056  1
  Co  Co10  1  0.33298644  0.83315989  0.19675389  1
  Co  Co10  1  0.33298644  0.83315989  0.53008722  1
  Co  Co10  1  0.33298644  0.83315989  0.86342056  1
  Co  Co10  1  0.66631978  0.16649322  0.19675389  1
  Co  Co10  1  0.66631978  0.16649322  0.53008722  1
  Co  Co10  1  0.66631978  0.16649322  0.86342056  1
  Co  Co10  1  0.66631978  0.49982656  0.19675389  1
  Co  Co10  1  0.66631978  0.49982656  0.53008722  1
  Co  Co10  1  0.66631978  0.49982656  0.86342056  1
  Co  Co10  1  0.66631978  0.83315989  0.19675389  1
  Co  Co10  1  0.66631978  0.83315989  0.53008722  1
  Co  Co10  1  0.66631978  0.83315989  0.86342056  1
  Co  Co10  1  0.99965311  0.16649322  0.19675389  1
  Co  Co10  1  0.99965311  0.16649322  0.53008722  1
  Co  Co10  1  0.99965311  0.16649322  0.86342056  1
  Co  Co10  1  0.99965311  0.49982656  0.19675389  1
  Co  Co10  1  0.99965311  0.49982656  0.53008722  1
  Co  Co10  1  0.99965311  0.49982656  0.86342056  1
  Co  Co10  1  0.99965311  0.83315989  0.19675389  1
  Co  Co10  1  0.99965311  0.83315989  0.53008722  1
  Co  Co10  1  0.99965311  0.83315989  0.86342056  1
  Co  Co11  1  0.00034689  0.16684011  0.13657944  1
  Co  Co11  1  0.00034689  0.16684011  0.46991278  1
  Co  Co11  1  0.00034689  0.16684011  0.80324611  1
  Co  Co11  1  0.00034689  0.50017344  0.13657944  1
  Co  Co11  1  0.00034689  0.50017344  0.46991278  1
  Co  Co11  1  0.00034689  0.50017344  0.80324611  1
  Co  Co11  1  0.00034689  0.83350678  0.13657944  1
  Co  Co11  1  0.00034689  0.83350678  0.46991278  1
  Co  Co11  1  0.00034689  0.83350678  0.80324611  1
  Co  Co11  1  0.33368022  0.16684011  0.13657944  1
  Co  Co11  1  0.33368022  0.16684011  0.46991278  1
  Co  Co11  1  0.33368022  0.16684011  0.80324611  1
  Co  Co11  1  0.33368022  0.50017344  0.13657944  1
  Co  Co11  1  0.33368022  0.50017344  0.46991278  1
  Co  Co11  1  0.33368022  0.50017344  0.80324611  1
  Co  Co11  1  0.33368022  0.83350678  0.13657944  1
  Co  Co11  1  0.33368022  0.83350678  0.46991278  1
  Co  Co11  1  0.33368022  0.83350678  0.80324611  1
  Co  Co11  1  0.66701356  0.16684011  0.13657944  1
  Co  Co11  1  0.66701356  0.16684011  0.46991278  1
  Co  Co11  1  0.66701356  0.16684011  0.80324611  1
  Co  Co11  1  0.66701356  0.50017344  0.13657944  1
  Co  Co11  1  0.66701356  0.50017344  0.46991278  1
  Co  Co11  1  0.66701356  0.50017344  0.80324611  1
  Co  Co11  1  0.66701356  0.83350678  0.13657944  1
  Co  Co11  1  0.66701356  0.83350678  0.46991278  1
  Co  Co11  1  0.66701356  0.83350678  0.80324611  1
  Co  Co12  1  0.16649322  0.33298644  0.13657944  1
  Co  Co12  1  0.16649322  0.33298644  0.46991278  1
  Co  Co12  1  0.16649322  0.33298644  0.80324611  1
  Co  Co12  1  0.16649322  0.66631978  0.13657944  1
  Co  Co12  1  0.16649322  0.66631978  0.46991278  1
  Co  Co12  1  0.16649322  0.66631978  0.80324611  1
  Co  Co12  1  0.16649322  0.99965311  0.13657944  1
  Co  Co12  1  0.16649322  0.99965311  0.46991278  1
  Co  Co12  1  0.16649322  0.99965311  0.80324611  1
  Co  Co12  1  0.49982656  0.33298644  0.13657944  1
  Co  Co12  1  0.49982656  0.33298644  0.46991278  1
  Co  Co12  1  0.49982656  0.33298644  0.80324611  1
  Co  Co12  1  0.49982656  0.66631978  0.13657944  1
  Co  Co12  1  0.49982656  0.66631978  0.46991278  1
  Co  Co12  1  0.49982656  0.66631978  0.80324611  1
  Co  Co12  1  0.49982656  0.99965311  0.13657944  1
  Co  Co12  1  0.49982656  0.99965311  0.46991278  1
  Co  Co12  1  0.49982656  0.99965311  0.80324611  1
  Co  Co12  1  0.83315989  0.33298644  0.13657944  1
  Co  Co12  1  0.83315989  0.33298644  0.46991278  1
  Co  Co12  1  0.83315989  0.33298644  0.80324611  1
  Co  Co12  1  0.83315989  0.66631978  0.13657944  1
  Co  Co12  1  0.83315989  0.66631978  0.46991278  1
  Co  Co12  1  0.83315989  0.66631978  0.80324611  1
  Co  Co12  1  0.83315989  0.99965311  0.13657944  1
  Co  Co12  1  0.83315989  0.99965311  0.46991278  1
  Co  Co12  1  0.83315989  0.99965311  0.80324611  1
  Co  Co13  1  0.16649322  0.16684011  0.13657944  1
  Co  Co13  1  0.16649322  0.16684011  0.46991278  1
  Co  Co13  1  0.16649322  0.16684011  0.80324611  1
  Co  Co13  1  0.16649322  0.50017344  0.13657944  1
  Co  Co13  1  0.16649322  0.50017344  0.46991278  1
  Co  Co13  1  0.16649322  0.50017344  0.80324611  1
  Co  Co13  1  0.16649322  0.83350678  0.13657944  1
  Co  Co13  1  0.16649322  0.83350678  0.46991278  1
  Co  Co13  1  0.16649322  0.83350678  0.80324611  1
  Co  Co13  1  0.49982656  0.16684011  0.13657944  1
  Co  Co13  1  0.49982656  0.16684011  0.46991278  1
  Co  Co13  1  0.49982656  0.16684011  0.80324611  1
  Co  Co13  1  0.49982656  0.50017344  0.13657944  1
  Co  Co13  1  0.49982656  0.50017344  0.46991278  1
  Co  Co13  1  0.49982656  0.50017344  0.80324611  1
  Co  Co13  1  0.49982656  0.83350678  0.13657944  1
  Co  Co13  1  0.49982656  0.83350678  0.46991278  1
  Co  Co13  1  0.49982656  0.83350678  0.80324611  1
  Co  Co13  1  0.83315989  0.16684011  0.13657944  1
  Co  Co13  1  0.83315989  0.16684011  0.46991278  1
  Co  Co13  1  0.83315989  0.16684011  0.80324611  1
  Co  Co13  1  0.83315989  0.50017344  0.13657944  1
  Co  Co13  1  0.83315989  0.50017344  0.46991278  1
  Co  Co13  1  0.83315989  0.50017344  0.80324611  1
  Co  Co13  1  0.83315989  0.83350678  0.13657944  1
  Co  Co13  1  0.83315989  0.83350678  0.46991278  1
  Co  Co13  1  0.83315989  0.83350678  0.80324611  1
  Co  Co14  1  0.11111111  0.22222222  0.22222222  1
  Co  Co14  1  0.11111111  0.22222222  0.55555556  1
  Co  Co14  1  0.11111111  0.22222222  0.88888889  1
  Co  Co14  1  0.11111111  0.55555556  0.22222222  1
  Co  Co14  1  0.11111111  0.55555556  0.55555556  1
  Co  Co14  1  0.11111111  0.55555556  0.88888889  1
  Co  Co14  1  0.11111111  0.88888889  0.22222222  1
  Co  Co14  1  0.11111111  0.88888889  0.55555556  1
  Co  Co14  1  0.11111111  0.88888889  0.88888889  1
  Co  Co14  1  0.44444444  0.22222222  0.22222222  1
  Co  Co14  1  0.44444444  0.22222222  0.55555556  1
  Co  Co14  1  0.44444444  0.22222222  0.88888889  1
  Co  Co14  1  0.44444444  0.55555556  0.22222222  1
  Co  Co14  1  0.44444444  0.55555556  0.55555556  1
  Co  Co14  1  0.44444444  0.55555556  0.88888889  1
  Co  Co14  1  0.44444444  0.88888889  0.22222222  1
  Co  Co14  1  0.44444444  0.88888889  0.55555556  1
  Co  Co14  1  0.44444444  0.88888889  0.88888889  1
  Co  Co14  1  0.77777778  0.22222222  0.22222222  1
  Co  Co14  1  0.77777778  0.22222222  0.55555556  1
  Co  Co14  1  0.77777778  0.22222222  0.88888889  1
  Co  Co14  1  0.77777778  0.55555556  0.22222222  1
  Co  Co14  1  0.77777778  0.55555556  0.55555556  1
  Co  Co14  1  0.77777778  0.55555556  0.88888889  1
  Co  Co14  1  0.77777778  0.88888889  0.22222222  1
  Co  Co14  1  0.77777778  0.88888889  0.55555556  1
  Co  Co14  1  0.77777778  0.88888889  0.88888889  1
  Co  Co15  1  0.05572900  0.11145800  0.30786500  1
  Co  Co15  1  0.05572900  0.11145800  0.64119833  1
  Co  Co15  1  0.05572900  0.11145800  0.97453167  1
  Co  Co15  1  0.05572900  0.44479133  0.30786500  1
  Co  Co15  1  0.05572900  0.44479133  0.64119833  1
  Co  Co15  1  0.05572900  0.44479133  0.97453167  1
  Co  Co15  1  0.05572900  0.77812467  0.30786500  1
  Co  Co15  1  0.05572900  0.77812467  0.64119833  1
  Co  Co15  1  0.05572900  0.77812467  0.97453167  1
  Co  Co15  1  0.38906233  0.11145800  0.30786500  1
  Co  Co15  1  0.38906233  0.11145800  0.64119833  1
  Co  Co15  1  0.38906233  0.11145800  0.97453167  1
  Co  Co15  1  0.38906233  0.44479133  0.30786500  1
  Co  Co15  1  0.38906233  0.44479133  0.64119833  1
  Co  Co15  1  0.38906233  0.44479133  0.97453167  1
  Co  Co15  1  0.38906233  0.77812467  0.30786500  1
  Co  Co15  1  0.38906233  0.77812467  0.64119833  1
  Co  Co15  1  0.38906233  0.77812467  0.97453167  1
  Co  Co15  1  0.72239567  0.11145800  0.30786500  1
  Co  Co15  1  0.72239567  0.11145800  0.64119833  1
  Co  Co15  1  0.72239567  0.11145800  0.97453167  1
  Co  Co15  1  0.72239567  0.44479133  0.30786500  1
  Co  Co15  1  0.72239567  0.44479133  0.64119833  1
  Co  Co15  1  0.72239567  0.44479133  0.97453167  1
  Co  Co15  1  0.72239567  0.77812467  0.30786500  1
  Co  Co15  1  0.72239567  0.77812467  0.64119833  1
  Co  Co15  1  0.72239567  0.77812467  0.97453167  1
  Co  Co16  1  0.05572900  0.27760433  0.30786500  1
  Co  Co16  1  0.05572900  0.27760433  0.64119833  1
  Co  Co16  1  0.05572900  0.27760433  0.97453167  1
  Co  Co16  1  0.05572900  0.61093767  0.30786500  1
  Co  Co16  1  0.05572900  0.61093767  0.64119833  1
  Co  Co16  1  0.05572900  0.61093767  0.97453167  1
  Co  Co16  1  0.05572900  0.94427100  0.30786500  1
  Co  Co16  1  0.05572900  0.94427100  0.64119833  1
  Co  Co16  1  0.05572900  0.94427100  0.97453167  1
  Co  Co16  1  0.38906233  0.27760433  0.30786500  1
  Co  Co16  1  0.38906233  0.27760433  0.64119833  1
  Co  Co16  1  0.38906233  0.27760433  0.97453167  1
  Co  Co16  1  0.38906233  0.61093767  0.30786500  1
  Co  Co16  1  0.38906233  0.61093767  0.64119833  1
  Co  Co16  1  0.38906233  0.61093767  0.97453167  1
  Co  Co16  1  0.38906233  0.94427100  0.30786500  1
  Co  Co16  1  0.38906233  0.94427100  0.64119833  1
  Co  Co16  1  0.38906233  0.94427100  0.97453167  1
  Co  Co16  1  0.72239567  0.27760433  0.30786500  1
  Co  Co16  1  0.72239567  0.27760433  0.64119833  1
  Co  Co16  1  0.72239567  0.27760433  0.97453167  1
  Co  Co16  1  0.72239567  0.61093767  0.30786500  1
  Co  Co16  1  0.72239567  0.61093767  0.64119833  1
  Co  Co16  1  0.72239567  0.61093767  0.97453167  1
  Co  Co16  1  0.72239567  0.94427100  0.30786500  1
  Co  Co16  1  0.72239567  0.94427100  0.64119833  1
  Co  Co16  1  0.72239567  0.94427100  0.97453167  1
  Co  Co17  1  0.22187533  0.27760433  0.30786500  1
  Co  Co17  1  0.22187533  0.27760433  0.64119833  1
  Co  Co17  1  0.22187533  0.27760433  0.97453167  1
  Co  Co17  1  0.22187533  0.61093767  0.30786500  1
  Co  Co17  1  0.22187533  0.61093767  0.64119833  1
  Co  Co17  1  0.22187533  0.61093767  0.97453167  1
  Co  Co17  1  0.22187533  0.94427100  0.30786500  1
  Co  Co17  1  0.22187533  0.94427100  0.64119833  1
  Co  Co17  1  0.22187533  0.94427100  0.97453167  1
  Co  Co17  1  0.55520867  0.27760433  0.30786500  1
  Co  Co17  1  0.55520867  0.27760433  0.64119833  1
  Co  Co17  1  0.55520867  0.27760433  0.97453167  1
  Co  Co17  1  0.55520867  0.61093767  0.30786500  1
  Co  Co17  1  0.55520867  0.61093767  0.64119833  1
  Co  Co17  1  0.55520867  0.61093767  0.97453167  1
  Co  Co17  1  0.55520867  0.94427100  0.30786500  1
  Co  Co17  1  0.55520867  0.94427100  0.64119833  1
  Co  Co17  1  0.55520867  0.94427100  0.97453167  1
  Co  Co17  1  0.88854200  0.27760433  0.30786500  1
  Co  Co17  1  0.88854200  0.27760433  0.64119833  1
  Co  Co17  1  0.88854200  0.27760433  0.97453167  1
  Co  Co17  1  0.88854200  0.61093767  0.30786500  1
  Co  Co17  1  0.88854200  0.61093767  0.64119833  1
  Co  Co17  1  0.88854200  0.61093767  0.97453167  1
  Co  Co17  1  0.88854200  0.94427100  0.30786500  1
  Co  Co17  1  0.88854200  0.94427100  0.64119833  1
  Co  Co17  1  0.88854200  0.94427100  0.97453167  1
  Co  Co18  1  0.22256911  0.27795122  0.24769056  1
  Co  Co18  1  0.22256911  0.27795122  0.58102389  1
  Co  Co18  1  0.22256911  0.27795122  0.91435722  1
  Co  Co18  1  0.22256911  0.61128456  0.24769056  1
  Co  Co18  1  0.22256911  0.61128456  0.58102389  1
  Co  Co18  1  0.22256911  0.61128456  0.91435722  1
  Co  Co18  1  0.22256911  0.94461789  0.24769056  1
  Co  Co18  1  0.22256911  0.94461789  0.58102389  1
  Co  Co18  1  0.22256911  0.94461789  0.91435722  1
  Co  Co18  1  0.55590244  0.27795122  0.24769056  1
  Co  Co18  1  0.55590244  0.27795122  0.58102389  1
  Co  Co18  1  0.55590244  0.27795122  0.91435722  1
  Co  Co18  1  0.55590244  0.61128456  0.24769056  1
  Co  Co18  1  0.55590244  0.61128456  0.58102389  1
  Co  Co18  1  0.55590244  0.61128456  0.91435722  1
  Co  Co18  1  0.55590244  0.94461789  0.24769056  1
  Co  Co18  1  0.55590244  0.94461789  0.58102389  1
  Co  Co18  1  0.55590244  0.94461789  0.91435722  1
  Co  Co18  1  0.88923578  0.27795122  0.24769056  1
  Co  Co18  1  0.88923578  0.27795122  0.58102389  1
  Co  Co18  1  0.88923578  0.27795122  0.91435722  1
  Co  Co18  1  0.88923578  0.61128456  0.24769056  1
  Co  Co18  1  0.88923578  0.61128456  0.58102389  1
  Co  Co18  1  0.88923578  0.61128456  0.91435722  1
  Co  Co18  1  0.88923578  0.94461789  0.24769056  1
  Co  Co18  1  0.88923578  0.94461789  0.58102389  1
  Co  Co18  1  0.88923578  0.94461789  0.91435722  1
  Co  Co19  1  0.05538211  0.11076422  0.24769056  1
  Co  Co19  1  0.05538211  0.11076422  0.58102389  1
  Co  Co19  1  0.05538211  0.11076422  0.91435722  1
  Co  Co19  1  0.05538211  0.44409756  0.24769056  1
  Co  Co19  1  0.05538211  0.44409756  0.58102389  1
  Co  Co19  1  0.05538211  0.44409756  0.91435722  1
  Co  Co19  1  0.05538211  0.77743089  0.24769056  1
  Co  Co19  1  0.05538211  0.77743089  0.58102389  1
  Co  Co19  1  0.05538211  0.77743089  0.91435722  1
  Co  Co19  1  0.38871544  0.11076422  0.24769056  1
  Co  Co19  1  0.38871544  0.11076422  0.58102389  1
  Co  Co19  1  0.38871544  0.11076422  0.91435722  1
  Co  Co19  1  0.38871544  0.44409756  0.24769056  1
  Co  Co19  1  0.38871544  0.44409756  0.58102389  1
  Co  Co19  1  0.38871544  0.44409756  0.91435722  1
  Co  Co19  1  0.38871544  0.77743089  0.24769056  1
  Co  Co19  1  0.38871544  0.77743089  0.58102389  1
  Co  Co19  1  0.38871544  0.77743089  0.91435722  1
  Co  Co19  1  0.72204878  0.11076422  0.24769056  1
  Co  Co19  1  0.72204878  0.11076422  0.58102389  1
  Co  Co19  1  0.72204878  0.11076422  0.91435722  1
  Co  Co19  1  0.72204878  0.44409756  0.24769056  1
  Co  Co19  1  0.72204878  0.44409756  0.58102389  1
  Co  Co19  1  0.72204878  0.44409756  0.91435722  1
  Co  Co19  1  0.72204878  0.77743089  0.24769056  1
  Co  Co19  1  0.72204878  0.77743089  0.58102389  1
  Co  Co19  1  0.72204878  0.77743089  0.91435722  1
  Co  Co20  1  0.05538211  0.27795122  0.24769056  1
  Co  Co20  1  0.05538211  0.27795122  0.58102389  1
  Co  Co20  1  0.05538211  0.27795122  0.91435722  1
  Co  Co20  1  0.05538211  0.61128456  0.24769056  1
  Co  Co20  1  0.05538211  0.61128456  0.58102389  1
  Co  Co20  1  0.05538211  0.61128456  0.91435722  1
  Co  Co20  1  0.05538211  0.94461789  0.24769056  1
  Co  Co20  1  0.05538211  0.94461789  0.58102389  1
  Co  Co20  1  0.05538211  0.94461789  0.91435722  1
  Co  Co20  1  0.38871544  0.27795122  0.24769056  1
  Co  Co20  1  0.38871544  0.27795122  0.58102389  1
  Co  Co20  1  0.38871544  0.27795122  0.91435722  1
  Co  Co20  1  0.38871544  0.61128456  0.24769056  1
  Co  Co20  1  0.38871544  0.61128456  0.58102389  1
  Co  Co20  1  0.38871544  0.61128456  0.91435722  1
  Co  Co20  1  0.38871544  0.94461789  0.24769056  1
  Co  Co20  1  0.38871544  0.94461789  0.58102389  1
  Co  Co20  1  0.38871544  0.94461789  0.91435722  1
  Co  Co20  1  0.72204878  0.27795122  0.24769056  1
  Co  Co20  1  0.72204878  0.27795122  0.58102389  1
  Co  Co20  1  0.72204878  0.27795122  0.91435722  1
  Co  Co20  1  0.72204878  0.61128456  0.24769056  1
  Co  Co20  1  0.72204878  0.61128456  0.58102389  1
  Co  Co20  1  0.72204878  0.61128456  0.91435722  1
  Co  Co20  1  0.72204878  0.94461789  0.24769056  1
  Co  Co20  1  0.72204878  0.94461789  0.58102389  1
  Co  Co20  1  0.72204878  0.94461789  0.91435722  1
  Ta  Ta21  1  0.00000000  0.00000000  0.05536667  1
  Ta  Ta21  1  0.00000000  0.00000000  0.38870000  1
  Ta  Ta21  1  0.00000000  0.00000000  0.72203333  1
  Ta  Ta21  1  0.00000000  0.33333333  0.05536667  1
  Ta  Ta21  1  0.00000000  0.33333333  0.38870000  1
  Ta  Ta21  1  0.00000000  0.33333333  0.72203333  1
  Ta  Ta21  1  0.00000000  0.66666667  0.05536667  1
  Ta  Ta21  1  0.00000000  0.66666667  0.38870000  1
  Ta  Ta21  1  0.00000000  0.66666667  0.72203333  1
  Ta  Ta21  1  0.33333333  0.00000000  0.05536667  1
  Ta  Ta21  1  0.33333333  0.00000000  0.38870000  1
  Ta  Ta21  1  0.33333333  0.00000000  0.72203333  1
  Ta  Ta21  1  0.33333333  0.33333333  0.05536667  1
  Ta  Ta21  1  0.33333333  0.33333333  0.38870000  1
  Ta  Ta21  1  0.33333333  0.33333333  0.72203333  1
  Ta  Ta21  1  0.33333333  0.66666667  0.05536667  1
  Ta  Ta21  1  0.33333333  0.66666667  0.38870000  1
  Ta  Ta21  1  0.33333333  0.66666667  0.72203333  1
  Ta  Ta21  1  0.66666667  0.00000000  0.05536667  1
  Ta  Ta21  1  0.66666667  0.00000000  0.38870000  1
  Ta  Ta21  1  0.66666667  0.00000000  0.72203333  1
  Ta  Ta21  1  0.66666667  0.33333333  0.05536667  1
  Ta  Ta21  1  0.66666667  0.33333333  0.38870000  1
  Ta  Ta21  1  0.66666667  0.33333333  0.72203333  1
  Ta  Ta21  1  0.66666667  0.66666667  0.05536667  1
  Ta  Ta21  1  0.66666667  0.66666667  0.38870000  1
  Ta  Ta21  1  0.66666667  0.66666667  0.72203333  1
  Ta  Ta22  1  0.22222222  0.11111111  0.05574444  1
  Ta  Ta22  1  0.22222222  0.11111111  0.38907778  1
  Ta  Ta22  1  0.22222222  0.11111111  0.72241111  1
  Ta  Ta22  1  0.22222222  0.44444444  0.05574444  1
  Ta  Ta22  1  0.22222222  0.44444444  0.38907778  1
  Ta  Ta22  1  0.22222222  0.44444444  0.72241111  1
  Ta  Ta22  1  0.22222222  0.77777778  0.05574444  1
  Ta  Ta22  1  0.22222222  0.77777778  0.38907778  1
  Ta  Ta22  1  0.22222222  0.77777778  0.72241111  1
  Ta  Ta22  1  0.55555556  0.11111111  0.05574444  1
  Ta  Ta22  1  0.55555556  0.11111111  0.38907778  1
  Ta  Ta22  1  0.55555556  0.11111111  0.72241111  1
  Ta  Ta22  1  0.55555556  0.44444444  0.05574444  1
  Ta  Ta22  1  0.55555556  0.44444444  0.38907778  1
  Ta  Ta22  1  0.55555556  0.44444444  0.72241111  1
  Ta  Ta22  1  0.55555556  0.77777778  0.05574444  1
  Ta  Ta22  1  0.55555556  0.77777778  0.38907778  1
  Ta  Ta22  1  0.55555556  0.77777778  0.72241111  1
  Ta  Ta22  1  0.88888889  0.11111111  0.05574444  1
  Ta  Ta22  1  0.88888889  0.11111111  0.38907778  1
  Ta  Ta22  1  0.88888889  0.11111111  0.72241111  1
  Ta  Ta22  1  0.88888889  0.44444444  0.05574444  1
  Ta  Ta22  1  0.88888889  0.44444444  0.38907778  1
  Ta  Ta22  1  0.88888889  0.44444444  0.72241111  1
  Ta  Ta22  1  0.88888889  0.77777778  0.05574444  1
  Ta  Ta22  1  0.88888889  0.77777778  0.38907778  1
  Ta  Ta22  1  0.88888889  0.77777778  0.72241111  1
  Ta  Ta23  1  0.11111111  0.22222222  0.00470122  1
  Ta  Ta23  1  0.11111111  0.22222222  0.33803456  1
  Ta  Ta23  1  0.11111111  0.22222222  0.67136789  1
  Ta  Ta23  1  0.11111111  0.55555556  0.00470122  1
  Ta  Ta23  1  0.11111111  0.55555556  0.33803456  1
  Ta  Ta23  1  0.11111111  0.55555556  0.67136789  1
  Ta  Ta23  1  0.11111111  0.88888889  0.00470122  1
  Ta  Ta23  1  0.11111111  0.88888889  0.33803456  1
  Ta  Ta23  1  0.11111111  0.88888889  0.67136789  1
  Ta  Ta23  1  0.44444444  0.22222222  0.00470122  1
  Ta  Ta23  1  0.44444444  0.22222222  0.33803456  1
  Ta  Ta23  1  0.44444444  0.22222222  0.67136789  1
  Ta  Ta23  1  0.44444444  0.55555556  0.00470122  1
  Ta  Ta23  1  0.44444444  0.55555556  0.33803456  1
  Ta  Ta23  1  0.44444444  0.55555556  0.67136789  1
  Ta  Ta23  1  0.44444444  0.88888889  0.00470122  1
  Ta  Ta23  1  0.44444444  0.88888889  0.33803456  1
  Ta  Ta23  1  0.44444444  0.88888889  0.67136789  1
  Ta  Ta23  1  0.77777778  0.22222222  0.00470122  1
  Ta  Ta23  1  0.77777778  0.22222222  0.33803456  1
  Ta  Ta23  1  0.77777778  0.22222222  0.67136789  1
  Ta  Ta23  1  0.77777778  0.55555556  0.00470122  1
  Ta  Ta23  1  0.77777778  0.55555556  0.33803456  1
  Ta  Ta23  1  0.77777778  0.55555556  0.67136789  1
  Ta  Ta23  1  0.77777778  0.88888889  0.00470122  1
  Ta  Ta23  1  0.77777778  0.88888889  0.33803456  1
  Ta  Ta23  1  0.77777778  0.88888889  0.67136789  1
  Ta  Ta24  1  0.11111111  0.22222222  0.10640989  1
  Ta  Ta24  1  0.11111111  0.22222222  0.43974322  1
  Ta  Ta24  1  0.11111111  0.22222222  0.77307656  1
  Ta  Ta24  1  0.11111111  0.55555556  0.10640989  1
  Ta  Ta24  1  0.11111111  0.55555556  0.43974322  1
  Ta  Ta24  1  0.11111111  0.55555556  0.77307656  1
  Ta  Ta24  1  0.11111111  0.88888889  0.10640989  1
  Ta  Ta24  1  0.11111111  0.88888889  0.43974322  1
  Ta  Ta24  1  0.11111111  0.88888889  0.77307656  1
  Ta  Ta24  1  0.44444444  0.22222222  0.10640989  1
  Ta  Ta24  1  0.44444444  0.22222222  0.43974322  1
  Ta  Ta24  1  0.44444444  0.22222222  0.77307656  1
  Ta  Ta24  1  0.44444444  0.55555556  0.10640989  1
  Ta  Ta24  1  0.44444444  0.55555556  0.43974322  1
  Ta  Ta24  1  0.44444444  0.55555556  0.77307656  1
  Ta  Ta24  1  0.44444444  0.88888889  0.10640989  1
  Ta  Ta24  1  0.44444444  0.88888889  0.43974322  1
  Ta  Ta24  1  0.44444444  0.88888889  0.77307656  1
  Ta  Ta24  1  0.77777778  0.22222222  0.10640989  1
  Ta  Ta24  1  0.77777778  0.22222222  0.43974322  1
  Ta  Ta24  1  0.77777778  0.22222222  0.77307656  1
  Ta  Ta24  1  0.77777778  0.55555556  0.10640989  1
  Ta  Ta24  1  0.77777778  0.55555556  0.43974322  1
  Ta  Ta24  1  0.77777778  0.55555556  0.77307656  1
  Ta  Ta24  1  0.77777778  0.88888889  0.10640989  1
  Ta  Ta24  1  0.77777778  0.88888889  0.43974322  1
  Ta  Ta24  1  0.77777778  0.88888889  0.77307656  1
  Ta  Ta25  1  0.11111111  0.22222222  0.03901222  1
  Ta  Ta25  1  0.11111111  0.22222222  0.37234556  1
  Ta  Ta25  1  0.11111111  0.22222222  0.70567889  1
  Ta  Ta25  1  0.11111111  0.55555556  0.03901222  1
  Ta  Ta25  1  0.11111111  0.55555556  0.37234556  1
  Ta  Ta25  1  0.11111111  0.55555556  0.70567889  1
  Ta  Ta25  1  0.11111111  0.88888889  0.03901222  1
  Ta  Ta25  1  0.11111111  0.88888889  0.37234556  1
  Ta  Ta25  1  0.11111111  0.88888889  0.70567889  1
  Ta  Ta25  1  0.44444444  0.22222222  0.03901222  1
  Ta  Ta25  1  0.44444444  0.22222222  0.37234556  1
  Ta  Ta25  1  0.44444444  0.22222222  0.70567889  1
  Ta  Ta25  1  0.44444444  0.55555556  0.03901222  1
  Ta  Ta25  1  0.44444444  0.55555556  0.37234556  1
  Ta  Ta25  1  0.44444444  0.55555556  0.70567889  1
  Ta  Ta25  1  0.44444444  0.88888889  0.03901222  1
  Ta  Ta25  1  0.44444444  0.88888889  0.37234556  1
  Ta  Ta25  1  0.44444444  0.88888889  0.70567889  1
  Ta  Ta25  1  0.77777778  0.22222222  0.03901222  1
  Ta  Ta25  1  0.77777778  0.22222222  0.37234556  1
  Ta  Ta25  1  0.77777778  0.22222222  0.70567889  1
  Ta  Ta25  1  0.77777778  0.55555556  0.03901222  1
  Ta  Ta25  1  0.77777778  0.55555556  0.37234556  1
  Ta  Ta25  1  0.77777778  0.55555556  0.70567889  1
  Ta  Ta25  1  0.77777778  0.88888889  0.03901222  1
  Ta  Ta25  1  0.77777778  0.88888889  0.37234556  1
  Ta  Ta25  1  0.77777778  0.88888889  0.70567889  1
  Ta  Ta26  1  0.11111111  0.22222222  0.07209889  1
  Ta  Ta26  1  0.11111111  0.22222222  0.40543222  1
  Ta  Ta26  1  0.11111111  0.22222222  0.73876556  1
  Ta  Ta26  1  0.11111111  0.55555556  0.07209889  1
  Ta  Ta26  1  0.11111111  0.55555556  0.40543222  1
  Ta  Ta26  1  0.11111111  0.55555556  0.73876556  1
  Ta  Ta26  1  0.11111111  0.88888889  0.07209889  1
  Ta  Ta26  1  0.11111111  0.88888889  0.40543222  1
  Ta  Ta26  1  0.11111111  0.88888889  0.73876556  1
  Ta  Ta26  1  0.44444444  0.22222222  0.07209889  1
  Ta  Ta26  1  0.44444444  0.22222222  0.40543222  1
  Ta  Ta26  1  0.44444444  0.22222222  0.73876556  1
  Ta  Ta26  1  0.44444444  0.55555556  0.07209889  1
  Ta  Ta26  1  0.44444444  0.55555556  0.40543222  1
  Ta  Ta26  1  0.44444444  0.55555556  0.73876556  1
  Ta  Ta26  1  0.44444444  0.88888889  0.07209889  1
  Ta  Ta26  1  0.44444444  0.88888889  0.40543222  1
  Ta  Ta26  1  0.44444444  0.88888889  0.73876556  1
  Ta  Ta26  1  0.77777778  0.22222222  0.07209889  1
  Ta  Ta26  1  0.77777778  0.22222222  0.40543222  1
  Ta  Ta26  1  0.77777778  0.22222222  0.73876556  1
  Ta  Ta26  1  0.77777778  0.55555556  0.07209889  1
  Ta  Ta26  1  0.77777778  0.55555556  0.40543222  1
  Ta  Ta26  1  0.77777778  0.55555556  0.73876556  1
  Ta  Ta26  1  0.77777778  0.88888889  0.07209889  1
  Ta  Ta26  1  0.77777778  0.88888889  0.40543222  1
  Ta  Ta26  1  0.77777778  0.88888889  0.73876556  1
  Ta  Ta27  1  0.22222222  0.11111111  0.16647778  1
  Ta  Ta27  1  0.22222222  0.11111111  0.49981111  1
  Ta  Ta27  1  0.22222222  0.11111111  0.83314444  1
  Ta  Ta27  1  0.22222222  0.44444444  0.16647778  1
  Ta  Ta27  1  0.22222222  0.44444444  0.49981111  1
  Ta  Ta27  1  0.22222222  0.44444444  0.83314444  1
  Ta  Ta27  1  0.22222222  0.77777778  0.16647778  1
  Ta  Ta27  1  0.22222222  0.77777778  0.49981111  1
  Ta  Ta27  1  0.22222222  0.77777778  0.83314444  1
  Ta  Ta27  1  0.55555556  0.11111111  0.16647778  1
  Ta  Ta27  1  0.55555556  0.11111111  0.49981111  1
  Ta  Ta27  1  0.55555556  0.11111111  0.83314444  1
  Ta  Ta27  1  0.55555556  0.44444444  0.16647778  1
  Ta  Ta27  1  0.55555556  0.44444444  0.49981111  1
  Ta  Ta27  1  0.55555556  0.44444444  0.83314444  1
  Ta  Ta27  1  0.55555556  0.77777778  0.16647778  1
  Ta  Ta27  1  0.55555556  0.77777778  0.49981111  1
  Ta  Ta27  1  0.55555556  0.77777778  0.83314444  1
  Ta  Ta27  1  0.88888889  0.11111111  0.16647778  1
  Ta  Ta27  1  0.88888889  0.11111111  0.49981111  1
  Ta  Ta27  1  0.88888889  0.11111111  0.83314444  1
  Ta  Ta27  1  0.88888889  0.44444444  0.16647778  1
  Ta  Ta27  1  0.88888889  0.44444444  0.49981111  1
  Ta  Ta27  1  0.88888889  0.44444444  0.83314444  1
  Ta  Ta27  1  0.88888889  0.77777778  0.16647778  1
  Ta  Ta27  1  0.88888889  0.77777778  0.49981111  1
  Ta  Ta27  1  0.88888889  0.77777778  0.83314444  1
  Ta  Ta28  1  0.11111111  0.22222222  0.16685556  1
  Ta  Ta28  1  0.11111111  0.22222222  0.50018889  1
  Ta  Ta28  1  0.11111111  0.22222222  0.83352222  1
  Ta  Ta28  1  0.11111111  0.55555556  0.16685556  1
  Ta  Ta28  1  0.11111111  0.55555556  0.50018889  1
  Ta  Ta28  1  0.11111111  0.55555556  0.83352222  1
  Ta  Ta28  1  0.11111111  0.88888889  0.16685556  1
  Ta  Ta28  1  0.11111111  0.88888889  0.50018889  1
  Ta  Ta28  1  0.11111111  0.88888889  0.83352222  1
  Ta  Ta28  1  0.44444444  0.22222222  0.16685556  1
  Ta  Ta28  1  0.44444444  0.22222222  0.50018889  1
  Ta  Ta28  1  0.44444444  0.22222222  0.83352222  1
  Ta  Ta28  1  0.44444444  0.55555556  0.16685556  1
  Ta  Ta28  1  0.44444444  0.55555556  0.50018889  1
  Ta  Ta28  1  0.44444444  0.55555556  0.83352222  1
  Ta  Ta28  1  0.44444444  0.88888889  0.16685556  1
  Ta  Ta28  1  0.44444444  0.88888889  0.50018889  1
  Ta  Ta28  1  0.44444444  0.88888889  0.83352222  1
  Ta  Ta28  1  0.77777778  0.22222222  0.16685556  1
  Ta  Ta28  1  0.77777778  0.22222222  0.50018889  1
  Ta  Ta28  1  0.77777778  0.22222222  0.83352222  1
  Ta  Ta28  1  0.77777778  0.55555556  0.16685556  1
  Ta  Ta28  1  0.77777778  0.55555556  0.50018889  1
  Ta  Ta28  1  0.77777778  0.55555556  0.83352222  1
  Ta  Ta28  1  0.77777778  0.88888889  0.16685556  1
  Ta  Ta28  1  0.77777778  0.88888889  0.50018889  1
  Ta  Ta28  1  0.77777778  0.88888889  0.83352222  1
  Ta  Ta29  1  0.00000000  0.00000000  0.11581233  1
  Ta  Ta29  1  0.00000000  0.00000000  0.44914567  1
  Ta  Ta29  1  0.00000000  0.00000000  0.78247900  1
  Ta  Ta29  1  0.00000000  0.33333333  0.11581233  1
  Ta  Ta29  1  0.00000000  0.33333333  0.44914567  1
  Ta  Ta29  1  0.00000000  0.33333333  0.78247900  1
  Ta  Ta29  1  0.00000000  0.66666667  0.11581233  1
  Ta  Ta29  1  0.00000000  0.66666667  0.44914567  1
  Ta  Ta29  1  0.00000000  0.66666667  0.78247900  1
  Ta  Ta29  1  0.33333333  0.00000000  0.11581233  1
  Ta  Ta29  1  0.33333333  0.00000000  0.44914567  1
  Ta  Ta29  1  0.33333333  0.00000000  0.78247900  1
  Ta  Ta29  1  0.33333333  0.33333333  0.11581233  1
  Ta  Ta29  1  0.33333333  0.33333333  0.44914567  1
  Ta  Ta29  1  0.33333333  0.33333333  0.78247900  1
  Ta  Ta29  1  0.33333333  0.66666667  0.11581233  1
  Ta  Ta29  1  0.33333333  0.66666667  0.44914567  1
  Ta  Ta29  1  0.33333333  0.66666667  0.78247900  1
  Ta  Ta29  1  0.66666667  0.00000000  0.11581233  1
  Ta  Ta29  1  0.66666667  0.00000000  0.44914567  1
  Ta  Ta29  1  0.66666667  0.00000000  0.78247900  1
  Ta  Ta29  1  0.66666667  0.33333333  0.11581233  1
  Ta  Ta29  1  0.66666667  0.33333333  0.44914567  1
  Ta  Ta29  1  0.66666667  0.33333333  0.78247900  1
  Ta  Ta29  1  0.66666667  0.66666667  0.11581233  1
  Ta  Ta29  1  0.66666667  0.66666667  0.44914567  1
  Ta  Ta29  1  0.66666667  0.66666667  0.78247900  1
  Ta  Ta30  1  0.00000000  0.00000000  0.21752100  1
  Ta  Ta30  1  0.00000000  0.00000000  0.55085433  1
  Ta  Ta30  1  0.00000000  0.00000000  0.88418767  1
  Ta  Ta30  1  0.00000000  0.33333333  0.21752100  1
  Ta  Ta30  1  0.00000000  0.33333333  0.55085433  1
  Ta  Ta30  1  0.00000000  0.33333333  0.88418767  1
  Ta  Ta30  1  0.00000000  0.66666667  0.21752100  1
  Ta  Ta30  1  0.00000000  0.66666667  0.55085433  1
  Ta  Ta30  1  0.00000000  0.66666667  0.88418767  1
  Ta  Ta30  1  0.33333333  0.00000000  0.21752100  1
  Ta  Ta30  1  0.33333333  0.00000000  0.55085433  1
  Ta  Ta30  1  0.33333333  0.00000000  0.88418767  1
  Ta  Ta30  1  0.33333333  0.33333333  0.21752100  1
  Ta  Ta30  1  0.33333333  0.33333333  0.55085433  1
  Ta  Ta30  1  0.33333333  0.33333333  0.88418767  1
  Ta  Ta30  1  0.33333333  0.66666667  0.21752100  1
  Ta  Ta30  1  0.33333333  0.66666667  0.55085433  1
  Ta  Ta30  1  0.33333333  0.66666667  0.88418767  1
  Ta  Ta30  1  0.66666667  0.00000000  0.21752100  1
  Ta  Ta30  1  0.66666667  0.00000000  0.55085433  1
  Ta  Ta30  1  0.66666667  0.00000000  0.88418767  1
  Ta  Ta30  1  0.66666667  0.33333333  0.21752100  1
  Ta  Ta30  1  0.66666667  0.33333333  0.55085433  1
  Ta  Ta30  1  0.66666667  0.33333333  0.88418767  1
  Ta  Ta30  1  0.66666667  0.66666667  0.21752100  1
  Ta  Ta30  1  0.66666667  0.66666667  0.55085433  1
  Ta  Ta30  1  0.66666667  0.66666667  0.88418767  1
  Ta  Ta31  1  0.00000000  0.00000000  0.15012333  1
  Ta  Ta31  1  0.00000000  0.00000000  0.48345667  1
  Ta  Ta31  1  0.00000000  0.00000000  0.81679000  1
  Ta  Ta31  1  0.00000000  0.33333333  0.15012333  1
  Ta  Ta31  1  0.00000000  0.33333333  0.48345667  1
  Ta  Ta31  1  0.00000000  0.33333333  0.81679000  1
  Ta  Ta31  1  0.00000000  0.66666667  0.15012333  1
  Ta  Ta31  1  0.00000000  0.66666667  0.48345667  1
  Ta  Ta31  1  0.00000000  0.66666667  0.81679000  1
  Ta  Ta31  1  0.33333333  0.00000000  0.15012333  1
  Ta  Ta31  1  0.33333333  0.00000000  0.48345667  1
  Ta  Ta31  1  0.33333333  0.00000000  0.81679000  1
  Ta  Ta31  1  0.33333333  0.33333333  0.15012333  1
  Ta  Ta31  1  0.33333333  0.33333333  0.48345667  1
  Ta  Ta31  1  0.33333333  0.33333333  0.81679000  1
  Ta  Ta31  1  0.33333333  0.66666667  0.15012333  1
  Ta  Ta31  1  0.33333333  0.66666667  0.48345667  1
  Ta  Ta31  1  0.33333333  0.66666667  0.81679000  1
  Ta  Ta31  1  0.66666667  0.00000000  0.15012333  1
  Ta  Ta31  1  0.66666667  0.00000000  0.48345667  1
  Ta  Ta31  1  0.66666667  0.00000000  0.81679000  1
  Ta  Ta31  1  0.66666667  0.33333333  0.15012333  1
  Ta  Ta31  1  0.66666667  0.33333333  0.48345667  1
  Ta  Ta31  1  0.66666667  0.33333333  0.81679000  1
  Ta  Ta31  1  0.66666667  0.66666667  0.15012333  1
  Ta  Ta31  1  0.66666667  0.66666667  0.48345667  1
  Ta  Ta31  1  0.66666667  0.66666667  0.81679000  1
  Ta  Ta32  1  0.00000000  0.00000000  0.18321000  1
  Ta  Ta32  1  0.00000000  0.00000000  0.51654333  1
  Ta  Ta32  1  0.00000000  0.00000000  0.84987667  1
  Ta  Ta32  1  0.00000000  0.33333333  0.18321000  1
  Ta  Ta32  1  0.00000000  0.33333333  0.51654333  1
  Ta  Ta32  1  0.00000000  0.33333333  0.84987667  1
  Ta  Ta32  1  0.00000000  0.66666667  0.18321000  1
  Ta  Ta32  1  0.00000000  0.66666667  0.51654333  1
  Ta  Ta32  1  0.00000000  0.66666667  0.84987667  1
  Ta  Ta32  1  0.33333333  0.00000000  0.18321000  1
  Ta  Ta32  1  0.33333333  0.00000000  0.51654333  1
  Ta  Ta32  1  0.33333333  0.00000000  0.84987667  1
  Ta  Ta32  1  0.33333333  0.33333333  0.18321000  1
  Ta  Ta32  1  0.33333333  0.33333333  0.51654333  1
  Ta  Ta32  1  0.33333333  0.33333333  0.84987667  1
  Ta  Ta32  1  0.33333333  0.66666667  0.18321000  1
  Ta  Ta32  1  0.33333333  0.66666667  0.51654333  1
  Ta  Ta32  1  0.33333333  0.66666667  0.84987667  1
  Ta  Ta32  1  0.66666667  0.00000000  0.18321000  1
  Ta  Ta32  1  0.66666667  0.00000000  0.51654333  1
  Ta  Ta32  1  0.66666667  0.00000000  0.84987667  1
  Ta  Ta32  1  0.66666667  0.33333333  0.18321000  1
  Ta  Ta32  1  0.66666667  0.33333333  0.51654333  1
  Ta  Ta32  1  0.66666667  0.33333333  0.84987667  1
  Ta  Ta32  1  0.66666667  0.66666667  0.18321000  1
  Ta  Ta32  1  0.66666667  0.66666667  0.51654333  1
  Ta  Ta32  1  0.66666667  0.66666667  0.84987667  1
  Ta  Ta33  1  0.11111111  0.22222222  0.27758889  1
  Ta  Ta33  1  0.11111111  0.22222222  0.61092222  1
  Ta  Ta33  1  0.11111111  0.22222222  0.94425556  1
  Ta  Ta33  1  0.11111111  0.55555556  0.27758889  1
  Ta  Ta33  1  0.11111111  0.55555556  0.61092222  1
  Ta  Ta33  1  0.11111111  0.55555556  0.94425556  1
  Ta  Ta33  1  0.11111111  0.88888889  0.27758889  1
  Ta  Ta33  1  0.11111111  0.88888889  0.61092222  1
  Ta  Ta33  1  0.11111111  0.88888889  0.94425556  1
  Ta  Ta33  1  0.44444444  0.22222222  0.27758889  1
  Ta  Ta33  1  0.44444444  0.22222222  0.61092222  1
  Ta  Ta33  1  0.44444444  0.22222222  0.94425556  1
  Ta  Ta33  1  0.44444444  0.55555556  0.27758889  1
  Ta  Ta33  1  0.44444444  0.55555556  0.61092222  1
  Ta  Ta33  1  0.44444444  0.55555556  0.94425556  1
  Ta  Ta33  1  0.44444444  0.88888889  0.27758889  1
  Ta  Ta33  1  0.44444444  0.88888889  0.61092222  1
  Ta  Ta33  1  0.44444444  0.88888889  0.94425556  1
  Ta  Ta33  1  0.77777778  0.22222222  0.27758889  1
  Ta  Ta33  1  0.77777778  0.22222222  0.61092222  1
  Ta  Ta33  1  0.77777778  0.22222222  0.94425556  1
  Ta  Ta33  1  0.77777778  0.55555556  0.27758889  1
  Ta  Ta33  1  0.77777778  0.55555556  0.61092222  1
  Ta  Ta33  1  0.77777778  0.55555556  0.94425556  1
  Ta  Ta33  1  0.77777778  0.88888889  0.27758889  1
  Ta  Ta33  1  0.77777778  0.88888889  0.61092222  1
  Ta  Ta33  1  0.77777778  0.88888889  0.94425556  1
  Ta  Ta34  1  0.00000000  0.00000000  0.27796667  1
  Ta  Ta34  1  0.00000000  0.00000000  0.61130000  1
  Ta  Ta34  1  0.00000000  0.00000000  0.94463333  1
  Ta  Ta34  1  0.00000000  0.33333333  0.27796667  1
  Ta  Ta34  1  0.00000000  0.33333333  0.61130000  1
  Ta  Ta34  1  0.00000000  0.33333333  0.94463333  1
  Ta  Ta34  1  0.00000000  0.66666667  0.27796667  1
  Ta  Ta34  1  0.00000000  0.66666667  0.61130000  1
  Ta  Ta34  1  0.00000000  0.66666667  0.94463333  1
  Ta  Ta34  1  0.33333333  0.00000000  0.27796667  1
  Ta  Ta34  1  0.33333333  0.00000000  0.61130000  1
  Ta  Ta34  1  0.33333333  0.00000000  0.94463333  1
  Ta  Ta34  1  0.33333333  0.33333333  0.27796667  1
  Ta  Ta34  1  0.33333333  0.33333333  0.61130000  1
  Ta  Ta34  1  0.33333333  0.33333333  0.94463333  1
  Ta  Ta34  1  0.33333333  0.66666667  0.27796667  1
  Ta  Ta34  1  0.33333333  0.66666667  0.61130000  1
  Ta  Ta34  1  0.33333333  0.66666667  0.94463333  1
  Ta  Ta34  1  0.66666667  0.00000000  0.27796667  1
  Ta  Ta34  1  0.66666667  0.00000000  0.61130000  1
  Ta  Ta34  1  0.66666667  0.00000000  0.94463333  1
  Ta  Ta34  1  0.66666667  0.33333333  0.27796667  1
  Ta  Ta34  1  0.66666667  0.33333333  0.61130000  1
  Ta  Ta34  1  0.66666667  0.33333333  0.94463333  1
  Ta  Ta34  1  0.66666667  0.66666667  0.27796667  1
  Ta  Ta34  1  0.66666667  0.66666667  0.61130000  1
  Ta  Ta34  1  0.66666667  0.66666667  0.94463333  1
  Ta  Ta35  1  0.22222222  0.11111111  0.22692344  1
  Ta  Ta35  1  0.22222222  0.11111111  0.56025678  1
  Ta  Ta35  1  0.22222222  0.11111111  0.89359011  1
  Ta  Ta35  1  0.22222222  0.44444444  0.22692344  1
  Ta  Ta35  1  0.22222222  0.44444444  0.56025678  1
  Ta  Ta35  1  0.22222222  0.44444444  0.89359011  1
  Ta  Ta35  1  0.22222222  0.77777778  0.22692344  1
  Ta  Ta35  1  0.22222222  0.77777778  0.56025678  1
  Ta  Ta35  1  0.22222222  0.77777778  0.89359011  1
  Ta  Ta35  1  0.55555556  0.11111111  0.22692344  1
  Ta  Ta35  1  0.55555556  0.11111111  0.56025678  1
  Ta  Ta35  1  0.55555556  0.11111111  0.89359011  1
  Ta  Ta35  1  0.55555556  0.44444444  0.22692344  1
  Ta  Ta35  1  0.55555556  0.44444444  0.56025678  1
  Ta  Ta35  1  0.55555556  0.44444444  0.89359011  1
  Ta  Ta35  1  0.55555556  0.77777778  0.22692344  1
  Ta  Ta35  1  0.55555556  0.77777778  0.56025678  1
  Ta  Ta35  1  0.55555556  0.77777778  0.89359011  1
  Ta  Ta35  1  0.88888889  0.11111111  0.22692344  1
  Ta  Ta35  1  0.88888889  0.11111111  0.56025678  1
  Ta  Ta35  1  0.88888889  0.11111111  0.89359011  1
  Ta  Ta35  1  0.88888889  0.44444444  0.22692344  1
  Ta  Ta35  1  0.88888889  0.44444444  0.56025678  1
  Ta  Ta35  1  0.88888889  0.44444444  0.89359011  1
  Ta  Ta35  1  0.88888889  0.77777778  0.22692344  1
  Ta  Ta35  1  0.88888889  0.77777778  0.56025678  1
  Ta  Ta35  1  0.88888889  0.77777778  0.89359011  1
  Ta  Ta36  1  0.22222222  0.11111111  0.32863211  1
  Ta  Ta36  1  0.22222222  0.11111111  0.66196544  1
  Ta  Ta36  1  0.22222222  0.11111111  0.99529878  1
  Ta  Ta36  1  0.22222222  0.44444444  0.32863211  1
  Ta  Ta36  1  0.22222222  0.44444444  0.66196544  1
  Ta  Ta36  1  0.22222222  0.44444444  0.99529878  1
  Ta  Ta36  1  0.22222222  0.77777778  0.32863211  1
  Ta  Ta36  1  0.22222222  0.77777778  0.66196544  1
  Ta  Ta36  1  0.22222222  0.77777778  0.99529878  1
  Ta  Ta36  1  0.55555556  0.11111111  0.32863211  1
  Ta  Ta36  1  0.55555556  0.11111111  0.66196544  1
  Ta  Ta36  1  0.55555556  0.11111111  0.99529878  1
  Ta  Ta36  1  0.55555556  0.44444444  0.32863211  1
  Ta  Ta36  1  0.55555556  0.44444444  0.66196544  1
  Ta  Ta36  1  0.55555556  0.44444444  0.99529878  1
  Ta  Ta36  1  0.55555556  0.77777778  0.32863211  1
  Ta  Ta36  1  0.55555556  0.77777778  0.66196544  1
  Ta  Ta36  1  0.55555556  0.77777778  0.99529878  1
  Ta  Ta36  1  0.88888889  0.11111111  0.32863211  1
  Ta  Ta36  1  0.88888889  0.11111111  0.66196544  1
  Ta  Ta36  1  0.88888889  0.11111111  0.99529878  1
  Ta  Ta36  1  0.88888889  0.44444444  0.32863211  1
  Ta  Ta36  1  0.88888889  0.44444444  0.66196544  1
  Ta  Ta36  1  0.88888889  0.44444444  0.99529878  1
  Ta  Ta36  1  0.88888889  0.77777778  0.32863211  1
  Ta  Ta36  1  0.88888889  0.77777778  0.66196544  1
  Ta  Ta36  1  0.88888889  0.77777778  0.99529878  1
  Ta  Ta37  1  0.22222222  0.11111111  0.26123444  1
  Ta  Ta37  1  0.22222222  0.11111111  0.59456778  1
  Ta  Ta37  1  0.22222222  0.11111111  0.92790111  1
  Ta  Ta37  1  0.22222222  0.44444444  0.26123444  1
  Ta  Ta37  1  0.22222222  0.44444444  0.59456778  1
  Ta  Ta37  1  0.22222222  0.44444444  0.92790111  1
  Ta  Ta37  1  0.22222222  0.77777778  0.26123444  1
  Ta  Ta37  1  0.22222222  0.77777778  0.59456778  1
  Ta  Ta37  1  0.22222222  0.77777778  0.92790111  1
  Ta  Ta37  1  0.55555556  0.11111111  0.26123444  1
  Ta  Ta37  1  0.55555556  0.11111111  0.59456778  1
  Ta  Ta37  1  0.55555556  0.11111111  0.92790111  1
  Ta  Ta37  1  0.55555556  0.44444444  0.26123444  1
  Ta  Ta37  1  0.55555556  0.44444444  0.59456778  1
  Ta  Ta37  1  0.55555556  0.44444444  0.92790111  1
  Ta  Ta37  1  0.55555556  0.77777778  0.26123444  1
  Ta  Ta37  1  0.55555556  0.77777778  0.59456778  1
  Ta  Ta37  1  0.55555556  0.77777778  0.92790111  1
  Ta  Ta37  1  0.88888889  0.11111111  0.26123444  1
  Ta  Ta37  1  0.88888889  0.11111111  0.59456778  1
  Ta  Ta37  1  0.88888889  0.11111111  0.92790111  1
  Ta  Ta37  1  0.88888889  0.44444444  0.26123444  1
  Ta  Ta37  1  0.88888889  0.44444444  0.59456778  1
  Ta  Ta37  1  0.88888889  0.44444444  0.92790111  1
  Ta  Ta37  1  0.88888889  0.77777778  0.26123444  1
  Ta  Ta37  1  0.88888889  0.77777778  0.59456778  1
  Ta  Ta37  1  0.88888889  0.77777778  0.92790111  1
  Ta  Ta38  1  0.22222222  0.11111111  0.29432111  1
  Ta  Ta38  1  0.22222222  0.11111111  0.62765444  1
  Ta  Ta38  1  0.22222222  0.11111111  0.96098778  1
  Ta  Ta38  1  0.22222222  0.44444444  0.29432111  1
  Ta  Ta38  1  0.22222222  0.44444444  0.62765444  1
  Ta  Ta38  1  0.22222222  0.44444444  0.96098778  1
  Ta  Ta38  1  0.22222222  0.77777778  0.29432111  1
  Ta  Ta38  1  0.22222222  0.77777778  0.62765444  1
  Ta  Ta38  1  0.22222222  0.77777778  0.96098778  1
  Ta  Ta38  1  0.55555556  0.11111111  0.29432111  1
  Ta  Ta38  1  0.55555556  0.11111111  0.62765444  1
  Ta  Ta38  1  0.55555556  0.11111111  0.96098778  1
  Ta  Ta38  1  0.55555556  0.44444444  0.29432111  1
  Ta  Ta38  1  0.55555556  0.44444444  0.62765444  1
  Ta  Ta38  1  0.55555556  0.44444444  0.96098778  1
  Ta  Ta38  1  0.55555556  0.77777778  0.29432111  1
  Ta  Ta38  1  0.55555556  0.77777778  0.62765444  1
  Ta  Ta38  1  0.55555556  0.77777778  0.96098778  1
  Ta  Ta38  1  0.88888889  0.11111111  0.29432111  1
  Ta  Ta38  1  0.88888889  0.11111111  0.62765444  1
  Ta  Ta38  1  0.88888889  0.11111111  0.96098778  1
  Ta  Ta38  1  0.88888889  0.44444444  0.29432111  1
  Ta  Ta38  1  0.88888889  0.44444444  0.62765444  1
  Ta  Ta38  1  0.88888889  0.44444444  0.96098778  1
  Ta  Ta38  1  0.88888889  0.77777778  0.29432111  1
  Ta  Ta38  1  0.88888889  0.77777778  0.62765444  1
  Ta  Ta38  1  0.88888889  0.77777778  0.96098778  1
