# generated using pymatgen
data_Ta6Co7
_symmetry_space_group_name_H-M   'P 1'
_cell_length_a   24.65000000
_cell_length_b   24.65000000
_cell_length_c   132.20000000
_cell_angle_alpha   90.00000000
_cell_angle_beta   90.00000000
_cell_angle_gamma   90.00000000
_symmetry_Int_Tables_number   1
_chemical_formula_structural   Ta6Co7
_chemical_formula_sum   'Ta2250 Co2625'
_cell_volume   80327.69450000
_cell_formula_units_Z   375
loop_
 _symmetry_equiv_pos_site_id
 _symmetry_equiv_pos_as_xyz
  1  'x, y, z'
loop_
 _atom_site_type_symbol
 _atom_site_label
 _atom_site_symmetry_multiplicity
 _atom_site_fract_x
 _atom_site_fract_y
 _atom_site_fract_z
 _atom_site_occupancy
  Co  Co0  1  0.00000000  0.00000000  0.00000000  1
  Co  Co0  1  0.00000000  0.00000000  0.20000000  1
  Co  Co0  1  0.00000000  0.00000000  0.40000000  1
  Co  Co0  1  0.00000000  0.00000000  0.60000000  1
  Co  Co0  1  0.00000000  0.00000000  0.80000000  1
  Co  Co0  1  0.00000000  0.20000000  0.00000000  1
  Co  Co0  1  0.00000000  0.20000000  0.20000000  1
  Co  Co0  1  0.00000000  0.20000000  0.40000000  1
  Co  Co0  1  0.00000000  0.20000000  0.60000000  1
  Co  Co0  1  0.00000000  0.20000000  0.80000000  1
  Co  Co0  1  0.00000000  0.40000000  0.00000000  1
  Co  Co0  1  0.00000000  0.40000000  0.20000000  1
  Co  Co0  1  0.00000000  0.40000000  0.40000000  1
  Co  Co0  1  0.00000000  0.40000000  0.60000000  1
  Co  Co0  1  0.00000000  0.40000000  0.80000000  1
  Co  Co0  1  0.00000000  0.60000000  0.00000000  1
  Co  Co0  1  0.00000000  0.60000000  0.20000000  1
  Co  Co0  1  0.00000000  0.60000000  0.40000000  1
  Co  Co0  1  0.00000000  0.60000000  0.60000000  1
  Co  Co0  1  0.00000000  0.60000000  0.80000000  1
  Co  Co0  1  0.00000000  0.80000000  0.00000000  1
  Co  Co0  1  0.00000000  0.80000000  0.20000000  1
  Co  Co0  1  0.00000000  0.80000000  0.40000000  1
  Co  Co0  1  0.00000000  0.80000000  0.60000000  1
  Co  Co0  1  0.00000000  0.80000000  0.80000000  1
  Co  Co0  1  0.20000000  0.00000000  0.00000000  1
  Co  Co0  1  0.20000000  0.00000000  0.20000000  1
  Co  Co0  1  0.20000000  0.00000000  0.40000000  1
  Co  Co0  1  0.20000000  0.00000000  0.60000000  1
  Co  Co0  1  0.20000000  0.00000000  0.80000000  1
  Co  Co0  1  0.20000000  0.20000000  0.00000000  1
  Co  Co0  1  0.20000000  0.20000000  0.20000000  1
  Co  Co0  1  0.20000000  0.20000000  0.40000000  1
  Co  Co0  1  0.20000000  0.20000000  0.60000000  1
  Co  Co0  1  0.20000000  0.20000000  0.80000000  1
  Co  Co0  1  0.20000000  0.40000000  0.00000000  1
  Co  Co0  1  0.20000000  0.40000000  0.20000000  1
  Co  Co0  1  0.20000000  0.40000000  0.40000000  1
  Co  Co0  1  0.20000000  0.40000000  0.60000000  1
  Co  Co0  1  0.20000000  0.40000000  0.80000000  1
  Co  Co0  1  0.20000000  0.60000000  0.00000000  1
  Co  Co0  1  0.20000000  0.60000000  0.20000000  1
  Co  Co0  1  0.20000000  0.60000000  0.40000000  1
  Co  Co0  1  0.20000000  0.60000000  0.60000000  1
  Co  Co0  1  0.20000000  0.60000000  0.80000000  1
  Co  Co0  1  0.20000000  0.80000000  0.00000000  1
  Co  Co0  1  0.20000000  0.80000000  0.20000000  1
  Co  Co0  1  0.20000000  0.80000000  0.40000000  1
  Co  Co0  1  0.20000000  0.80000000  0.60000000  1
  Co  Co0  1  0.20000000  0.80000000  0.80000000  1
  Co  Co0  1  0.40000000  0.00000000  0.00000000  1
  Co  Co0  1  0.40000000  0.00000000  0.20000000  1
  Co  Co0  1  0.40000000  0.00000000  0.40000000  1
  Co  Co0  1  0.40000000  0.00000000  0.60000000  1
  Co  Co0  1  0.40000000  0.00000000  0.80000000  1
  Co  Co0  1  0.40000000  0.20000000  0.00000000  1
  Co  Co0  1  0.40000000  0.20000000  0.20000000  1
  Co  Co0  1  0.40000000  0.20000000  0.40000000  1
  Co  Co0  1  0.40000000  0.20000000  0.60000000  1
  Co  Co0  1  0.40000000  0.20000000  0.80000000  1
  Co  Co0  1  0.40000000  0.40000000  0.00000000  1
  Co  Co0  1  0.40000000  0.40000000  0.20000000  1
  Co  Co0  1  0.40000000  0.40000000  0.40000000  1
  Co  Co0  1  0.40000000  0.40000000  0.60000000  1
  Co  Co0  1  0.40000000  0.40000000  0.80000000  1
  Co  Co0  1  0.40000000  0.60000000  0.00000000  1
  Co  Co0  1  0.40000000  0.60000000  0.20000000  1
  Co  Co0  1  0.40000000  0.60000000  0.40000000  1
  Co  Co0  1  0.40000000  0.60000000  0.60000000  1
  Co  Co0  1  0.40000000  0.60000000  0.80000000  1
  Co  Co0  1  0.40000000  0.80000000  0.00000000  1
  Co  Co0  1  0.40000000  0.80000000  0.20000000  1
  Co  Co0  1  0.40000000  0.80000000  0.40000000  1
  Co  Co0  1  0.40000000  0.80000000  0.60000000  1
  Co  Co0  1  0.40000000  0.80000000  0.80000000  1
  Co  Co0  1  0.60000000  0.00000000  0.00000000  1
  Co  Co0  1  0.60000000  0.00000000  0.20000000  1
  Co  Co0  1  0.60000000  0.00000000  0.40000000  1
  Co  Co0  1  0.60000000  0.00000000  0.60000000  1
  Co  Co0  1  0.60000000  0.00000000  0.80000000  1
  Co  Co0  1  0.60000000  0.20000000  0.00000000  1
  Co  Co0  1  0.60000000  0.20000000  0.20000000  1
  Co  Co0  1  0.60000000  0.20000000  0.40000000  1
  Co  Co0  1  0.60000000  0.20000000  0.60000000  1
  Co  Co0  1  0.60000000  0.20000000  0.80000000  1
  Co  Co0  1  0.60000000  0.40000000  0.00000000  1
  Co  Co0  1  0.60000000  0.40000000  0.20000000  1
  Co  Co0  1  0.60000000  0.40000000  0.40000000  1
  Co  Co0  1  0.60000000  0.40000000  0.60000000  1
  Co  Co0  1  0.60000000  0.40000000  0.80000000  1
  Co  Co0  1  0.60000000  0.60000000  0.00000000  1
  Co  Co0  1  0.60000000  0.60000000  0.20000000  1
  Co  Co0  1  0.60000000  0.60000000  0.40000000  1
  Co  Co0  1  0.60000000  0.60000000  0.60000000  1
  Co  Co0  1  0.60000000  0.60000000  0.80000000  1
  Co  Co0  1  0.60000000  0.80000000  0.00000000  1
  Co  Co0  1  0.60000000  0.80000000  0.20000000  1
  Co  Co0  1  0.60000000  0.80000000  0.40000000  1
  Co  Co0  1  0.60000000  0.80000000  0.60000000  1
  Co  Co0  1  0.60000000  0.80000000  0.80000000  1
  Co  Co0  1  0.80000000  0.00000000  0.00000000  1
  Co  Co0  1  0.80000000  0.00000000  0.20000000  1
  Co  Co0  1  0.80000000  0.00000000  0.40000000  1
  Co  Co0  1  0.80000000  0.00000000  0.60000000  1
  Co  Co0  1  0.80000000  0.00000000  0.80000000  1
  Co  Co0  1  0.80000000  0.20000000  0.00000000  1
  Co  Co0  1  0.80000000  0.20000000  0.20000000  1
  Co  Co0  1  0.80000000  0.20000000  0.40000000  1
  Co  Co0  1  0.80000000  0.20000000  0.60000000  1
  Co  Co0  1  0.80000000  0.20000000  0.80000000  1
  Co  Co0  1  0.80000000  0.40000000  0.00000000  1
  Co  Co0  1  0.80000000  0.40000000  0.20000000  1
  Co  Co0  1  0.80000000  0.40000000  0.40000000  1
  Co  Co0  1  0.80000000  0.40000000  0.60000000  1
  Co  Co0  1  0.80000000  0.40000000  0.80000000  1
  Co  Co0  1  0.80000000  0.60000000  0.00000000  1
  Co  Co0  1  0.80000000  0.60000000  0.20000000  1
  Co  Co0  1  0.80000000  0.60000000  0.40000000  1
  Co  Co0  1  0.80000000  0.60000000  0.60000000  1
  Co  Co0  1  0.80000000  0.60000000  0.80000000  1
  Co  Co0  1  0.80000000  0.80000000  0.00000000  1
  Co  Co0  1  0.80000000  0.80000000  0.20000000  1
  Co  Co0  1  0.80000000  0.80000000  0.40000000  1
  Co  Co0  1  0.80000000  0.80000000  0.60000000  1
  Co  Co0  1  0.80000000  0.80000000  0.80000000  1
  Co  Co1  1  0.16677073  0.13354147  0.05138567  1
  Co  Co1  1  0.16677073  0.13354147  0.25138567  1
  Co  Co1  1  0.16677073  0.13354147  0.45138567  1
  Co  Co1  1  0.16677073  0.13354147  0.65138567  1
  Co  Co1  1  0.16677073  0.13354147  0.85138567  1
  Co  Co1  1  0.16677073  0.33354147  0.05138567  1
  Co  Co1  1  0.16677073  0.33354147  0.25138567  1
  Co  Co1  1  0.16677073  0.33354147  0.45138567  1
  Co  Co1  1  0.16677073  0.33354147  0.65138567  1
  Co  Co1  1  0.16677073  0.33354147  0.85138567  1
  Co  Co1  1  0.16677073  0.53354147  0.05138567  1
  Co  Co1  1  0.16677073  0.53354147  0.25138567  1
  Co  Co1  1  0.16677073  0.53354147  0.45138567  1
  Co  Co1  1  0.16677073  0.53354147  0.65138567  1
  Co  Co1  1  0.16677073  0.53354147  0.85138567  1
  Co  Co1  1  0.16677073  0.73354147  0.05138567  1
  Co  Co1  1  0.16677073  0.73354147  0.25138567  1
  Co  Co1  1  0.16677073  0.73354147  0.45138567  1
  Co  Co1  1  0.16677073  0.73354147  0.65138567  1
  Co  Co1  1  0.16677073  0.73354147  0.85138567  1
  Co  Co1  1  0.16677073  0.93354147  0.05138567  1
  Co  Co1  1  0.16677073  0.93354147  0.25138567  1
  Co  Co1  1  0.16677073  0.93354147  0.45138567  1
  Co  Co1  1  0.16677073  0.93354147  0.65138567  1
  Co  Co1  1  0.16677073  0.93354147  0.85138567  1
  Co  Co1  1  0.36677073  0.13354147  0.05138567  1
  Co  Co1  1  0.36677073  0.13354147  0.25138567  1
  Co  Co1  1  0.36677073  0.13354147  0.45138567  1
  Co  Co1  1  0.36677073  0.13354147  0.65138567  1
  Co  Co1  1  0.36677073  0.13354147  0.85138567  1
  Co  Co1  1  0.36677073  0.33354147  0.05138567  1
  Co  Co1  1  0.36677073  0.33354147  0.25138567  1
  Co  Co1  1  0.36677073  0.33354147  0.45138567  1
  Co  Co1  1  0.36677073  0.33354147  0.65138567  1
  Co  Co1  1  0.36677073  0.33354147  0.85138567  1
  Co  Co1  1  0.36677073  0.53354147  0.05138567  1
  Co  Co1  1  0.36677073  0.53354147  0.25138567  1
  Co  Co1  1  0.36677073  0.53354147  0.45138567  1
  Co  Co1  1  0.36677073  0.53354147  0.65138567  1
  Co  Co1  1  0.36677073  0.53354147  0.85138567  1
  Co  Co1  1  0.36677073  0.73354147  0.05138567  1
  Co  Co1  1  0.36677073  0.73354147  0.25138567  1
  Co  Co1  1  0.36677073  0.73354147  0.45138567  1
  Co  Co1  1  0.36677073  0.73354147  0.65138567  1
  Co  Co1  1  0.36677073  0.73354147  0.85138567  1
  Co  Co1  1  0.36677073  0.93354147  0.05138567  1
  Co  Co1  1  0.36677073  0.93354147  0.25138567  1
  Co  Co1  1  0.36677073  0.93354147  0.45138567  1
  Co  Co1  1  0.36677073  0.93354147  0.65138567  1
  Co  Co1  1  0.36677073  0.93354147  0.85138567  1
  Co  Co1  1  0.56677073  0.13354147  0.05138567  1
  Co  Co1  1  0.56677073  0.13354147  0.25138567  1
  Co  Co1  1  0.56677073  0.13354147  0.45138567  1
  Co  Co1  1  0.56677073  0.13354147  0.65138567  1
  Co  Co1  1  0.56677073  0.13354147  0.85138567  1
  Co  Co1  1  0.56677073  0.33354147  0.05138567  1
  Co  Co1  1  0.56677073  0.33354147  0.25138567  1
  Co  Co1  1  0.56677073  0.33354147  0.45138567  1
  Co  Co1  1  0.56677073  0.33354147  0.65138567  1
  Co  Co1  1  0.56677073  0.33354147  0.85138567  1
  Co  Co1  1  0.56677073  0.53354147  0.05138567  1
  Co  Co1  1  0.56677073  0.53354147  0.25138567  1
  Co  Co1  1  0.56677073  0.53354147  0.45138567  1
  Co  Co1  1  0.56677073  0.53354147  0.65138567  1
  Co  Co1  1  0.56677073  0.53354147  0.85138567  1
  Co  Co1  1  0.56677073  0.73354147  0.05138567  1
  Co  Co1  1  0.56677073  0.73354147  0.25138567  1
  Co  Co1  1  0.56677073  0.73354147  0.45138567  1
  Co  Co1  1  0.56677073  0.73354147  0.65138567  1
  Co  Co1  1  0.56677073  0.73354147  0.85138567  1
  Co  Co1  1  0.56677073  0.93354147  0.05138567  1
  Co  Co1  1  0.56677073  0.93354147  0.25138567  1
  Co  Co1  1  0.56677073  0.93354147  0.45138567  1
  Co  Co1  1  0.56677073  0.93354147  0.65138567  1
  Co  Co1  1  0.56677073  0.93354147  0.85138567  1
  Co  Co1  1  0.76677073  0.13354147  0.05138567  1
  Co  Co1  1  0.76677073  0.13354147  0.25138567  1
  Co  Co1  1  0.76677073  0.13354147  0.45138567  1
  Co  Co1  1  0.76677073  0.13354147  0.65138567  1
  Co  Co1  1  0.76677073  0.13354147  0.85138567  1
  Co  Co1  1  0.76677073  0.33354147  0.05138567  1
  Co  Co1  1  0.76677073  0.33354147  0.25138567  1
  Co  Co1  1  0.76677073  0.33354147  0.45138567  1
  Co  Co1  1  0.76677073  0.33354147  0.65138567  1
  Co  Co1  1  0.76677073  0.33354147  0.85138567  1
  Co  Co1  1  0.76677073  0.53354147  0.05138567  1
  Co  Co1  1  0.76677073  0.53354147  0.25138567  1
  Co  Co1  1  0.76677073  0.53354147  0.45138567  1
  Co  Co1  1  0.76677073  0.53354147  0.65138567  1
  Co  Co1  1  0.76677073  0.53354147  0.85138567  1
  Co  Co1  1  0.76677073  0.73354147  0.05138567  1
  Co  Co1  1  0.76677073  0.73354147  0.25138567  1
  Co  Co1  1  0.76677073  0.73354147  0.45138567  1
  Co  Co1  1  0.76677073  0.73354147  0.65138567  1
  Co  Co1  1  0.76677073  0.73354147  0.85138567  1
  Co  Co1  1  0.76677073  0.93354147  0.05138567  1
  Co  Co1  1  0.76677073  0.93354147  0.25138567  1
  Co  Co1  1  0.76677073  0.93354147  0.45138567  1
  Co  Co1  1  0.76677073  0.93354147  0.65138567  1
  Co  Co1  1  0.76677073  0.93354147  0.85138567  1
  Co  Co1  1  0.96677073  0.13354147  0.05138567  1
  Co  Co1  1  0.96677073  0.13354147  0.25138567  1
  Co  Co1  1  0.96677073  0.13354147  0.45138567  1
  Co  Co1  1  0.96677073  0.13354147  0.65138567  1
  Co  Co1  1  0.96677073  0.13354147  0.85138567  1
  Co  Co1  1  0.96677073  0.33354147  0.05138567  1
  Co  Co1  1  0.96677073  0.33354147  0.25138567  1
  Co  Co1  1  0.96677073  0.33354147  0.45138567  1
  Co  Co1  1  0.96677073  0.33354147  0.65138567  1
  Co  Co1  1  0.96677073  0.33354147  0.85138567  1
  Co  Co1  1  0.96677073  0.53354147  0.05138567  1
  Co  Co1  1  0.96677073  0.53354147  0.25138567  1
  Co  Co1  1  0.96677073  0.53354147  0.45138567  1
  Co  Co1  1  0.96677073  0.53354147  0.65138567  1
  Co  Co1  1  0.96677073  0.53354147  0.85138567  1
  Co  Co1  1  0.96677073  0.73354147  0.05138567  1
  Co  Co1  1  0.96677073  0.73354147  0.25138567  1
  Co  Co1  1  0.96677073  0.73354147  0.45138567  1
  Co  Co1  1  0.96677073  0.73354147  0.65138567  1
  Co  Co1  1  0.96677073  0.73354147  0.85138567  1
  Co  Co1  1  0.96677073  0.93354147  0.05138567  1
  Co  Co1  1  0.96677073  0.93354147  0.25138567  1
  Co  Co1  1  0.96677073  0.93354147  0.45138567  1
  Co  Co1  1  0.96677073  0.93354147  0.65138567  1
  Co  Co1  1  0.96677073  0.93354147  0.85138567  1
  Co  Co2  1  0.16677073  0.03322927  0.05138567  1
  Co  Co2  1  0.16677073  0.03322927  0.25138567  1
  Co  Co2  1  0.16677073  0.03322927  0.45138567  1
  Co  Co2  1  0.16677073  0.03322927  0.65138567  1
  Co  Co2  1  0.16677073  0.03322927  0.85138567  1
  Co  Co2  1  0.16677073  0.23322927  0.05138567  1
  Co  Co2  1  0.16677073  0.23322927  0.25138567  1
  Co  Co2  1  0.16677073  0.23322927  0.45138567  1
  Co  Co2  1  0.16677073  0.23322927  0.65138567  1
  Co  Co2  1  0.16677073  0.23322927  0.85138567  1
  Co  Co2  1  0.16677073  0.43322927  0.05138567  1
  Co  Co2  1  0.16677073  0.43322927  0.25138567  1
  Co  Co2  1  0.16677073  0.43322927  0.45138567  1
  Co  Co2  1  0.16677073  0.43322927  0.65138567  1
  Co  Co2  1  0.16677073  0.43322927  0.85138567  1
  Co  Co2  1  0.16677073  0.63322927  0.05138567  1
  Co  Co2  1  0.16677073  0.63322927  0.25138567  1
  Co  Co2  1  0.16677073  0.63322927  0.45138567  1
  Co  Co2  1  0.16677073  0.63322927  0.65138567  1
  Co  Co2  1  0.16677073  0.63322927  0.85138567  1
  Co  Co2  1  0.16677073  0.83322927  0.05138567  1
  Co  Co2  1  0.16677073  0.83322927  0.25138567  1
  Co  Co2  1  0.16677073  0.83322927  0.45138567  1
  Co  Co2  1  0.16677073  0.83322927  0.65138567  1
  Co  Co2  1  0.16677073  0.83322927  0.85138567  1
  Co  Co2  1  0.36677073  0.03322927  0.05138567  1
  Co  Co2  1  0.36677073  0.03322927  0.25138567  1
  Co  Co2  1  0.36677073  0.03322927  0.45138567  1
  Co  Co2  1  0.36677073  0.03322927  0.65138567  1
  Co  Co2  1  0.36677073  0.03322927  0.85138567  1
  Co  Co2  1  0.36677073  0.23322927  0.05138567  1
  Co  Co2  1  0.36677073  0.23322927  0.25138567  1
  Co  Co2  1  0.36677073  0.23322927  0.45138567  1
  Co  Co2  1  0.36677073  0.23322927  0.65138567  1
  Co  Co2  1  0.36677073  0.23322927  0.85138567  1
  Co  Co2  1  0.36677073  0.43322927  0.05138567  1
  Co  Co2  1  0.36677073  0.43322927  0.25138567  1
  Co  Co2  1  0.36677073  0.43322927  0.45138567  1
  Co  Co2  1  0.36677073  0.43322927  0.65138567  1
  Co  Co2  1  0.36677073  0.43322927  0.85138567  1
  Co  Co2  1  0.36677073  0.63322927  0.05138567  1
  Co  Co2  1  0.36677073  0.63322927  0.25138567  1
  Co  Co2  1  0.36677073  0.63322927  0.45138567  1
  Co  Co2  1  0.36677073  0.63322927  0.65138567  1
  Co  Co2  1  0.36677073  0.63322927  0.85138567  1
  Co  Co2  1  0.36677073  0.83322927  0.05138567  1
  Co  Co2  1  0.36677073  0.83322927  0.25138567  1
  Co  Co2  1  0.36677073  0.83322927  0.45138567  1
  Co  Co2  1  0.36677073  0.83322927  0.65138567  1
  Co  Co2  1  0.36677073  0.83322927  0.85138567  1
  Co  Co2  1  0.56677073  0.03322927  0.05138567  1
  Co  Co2  1  0.56677073  0.03322927  0.25138567  1
  Co  Co2  1  0.56677073  0.03322927  0.45138567  1
  Co  Co2  1  0.56677073  0.03322927  0.65138567  1
  Co  Co2  1  0.56677073  0.03322927  0.85138567  1
  Co  Co2  1  0.56677073  0.23322927  0.05138567  1
  Co  Co2  1  0.56677073  0.23322927  0.25138567  1
  Co  Co2  1  0.56677073  0.23322927  0.45138567  1
  Co  Co2  1  0.56677073  0.23322927  0.65138567  1
  Co  Co2  1  0.56677073  0.23322927  0.85138567  1
  Co  Co2  1  0.56677073  0.43322927  0.05138567  1
  Co  Co2  1  0.56677073  0.43322927  0.25138567  1
  Co  Co2  1  0.56677073  0.43322927  0.45138567  1
  Co  Co2  1  0.56677073  0.43322927  0.65138567  1
  Co  Co2  1  0.56677073  0.43322927  0.85138567  1
  Co  Co2  1  0.56677073  0.63322927  0.05138567  1
  Co  Co2  1  0.56677073  0.63322927  0.25138567  1
  Co  Co2  1  0.56677073  0.63322927  0.45138567  1
  Co  Co2  1  0.56677073  0.63322927  0.65138567  1
  Co  Co2  1  0.56677073  0.63322927  0.85138567  1
  Co  Co2  1  0.56677073  0.83322927  0.05138567  1
  Co  Co2  1  0.56677073  0.83322927  0.25138567  1
  Co  Co2  1  0.56677073  0.83322927  0.45138567  1
  Co  Co2  1  0.56677073  0.83322927  0.65138567  1
  Co  Co2  1  0.56677073  0.83322927  0.85138567  1
  Co  Co2  1  0.76677073  0.03322927  0.05138567  1
  Co  Co2  1  0.76677073  0.03322927  0.25138567  1
  Co  Co2  1  0.76677073  0.03322927  0.45138567  1
  Co  Co2  1  0.76677073  0.03322927  0.65138567  1
  Co  Co2  1  0.76677073  0.03322927  0.85138567  1
  Co  Co2  1  0.76677073  0.23322927  0.05138567  1
  Co  Co2  1  0.76677073  0.23322927  0.25138567  1
  Co  Co2  1  0.76677073  0.23322927  0.45138567  1
  Co  Co2  1  0.76677073  0.23322927  0.65138567  1
  Co  Co2  1  0.76677073  0.23322927  0.85138567  1
  Co  Co2  1  0.76677073  0.43322927  0.05138567  1
  Co  Co2  1  0.76677073  0.43322927  0.25138567  1
  Co  Co2  1  0.76677073  0.43322927  0.45138567  1
  Co  Co2  1  0.76677073  0.43322927  0.65138567  1
  Co  Co2  1  0.76677073  0.43322927  0.85138567  1
  Co  Co2  1  0.76677073  0.63322927  0.05138567  1
  Co  Co2  1  0.76677073  0.63322927  0.25138567  1
  Co  Co2  1  0.76677073  0.63322927  0.45138567  1
  Co  Co2  1  0.76677073  0.63322927  0.65138567  1
  Co  Co2  1  0.76677073  0.63322927  0.85138567  1
  Co  Co2  1  0.76677073  0.83322927  0.05138567  1
  Co  Co2  1  0.76677073  0.83322927  0.25138567  1
  Co  Co2  1  0.76677073  0.83322927  0.45138567  1
  Co  Co2  1  0.76677073  0.83322927  0.65138567  1
  Co  Co2  1  0.76677073  0.83322927  0.85138567  1
  Co  Co2  1  0.96677073  0.03322927  0.05138567  1
  Co  Co2  1  0.96677073  0.03322927  0.25138567  1
  Co  Co2  1  0.96677073  0.03322927  0.45138567  1
  Co  Co2  1  0.96677073  0.03322927  0.65138567  1
  Co  Co2  1  0.96677073  0.03322927  0.85138567  1
  Co  Co2  1  0.96677073  0.23322927  0.05138567  1
  Co  Co2  1  0.96677073  0.23322927  0.25138567  1
  Co  Co2  1  0.96677073  0.23322927  0.45138567  1
  Co  Co2  1  0.96677073  0.23322927  0.65138567  1
  Co  Co2  1  0.96677073  0.23322927  0.85138567  1
  Co  Co2  1  0.96677073  0.43322927  0.05138567  1
  Co  Co2  1  0.96677073  0.43322927  0.25138567  1
  Co  Co2  1  0.96677073  0.43322927  0.45138567  1
  Co  Co2  1  0.96677073  0.43322927  0.65138567  1
  Co  Co2  1  0.96677073  0.43322927  0.85138567  1
  Co  Co2  1  0.96677073  0.63322927  0.05138567  1
  Co  Co2  1  0.96677073  0.63322927  0.25138567  1
  Co  Co2  1  0.96677073  0.63322927  0.45138567  1
  Co  Co2  1  0.96677073  0.63322927  0.65138567  1
  Co  Co2  1  0.96677073  0.63322927  0.85138567  1
  Co  Co2  1  0.96677073  0.83322927  0.05138567  1
  Co  Co2  1  0.96677073  0.83322927  0.25138567  1
  Co  Co2  1  0.96677073  0.83322927  0.45138567  1
  Co  Co2  1  0.96677073  0.83322927  0.65138567  1
  Co  Co2  1  0.96677073  0.83322927  0.85138567  1
  Co  Co3  1  0.06645853  0.03322927  0.05138567  1
  Co  Co3  1  0.06645853  0.03322927  0.25138567  1
  Co  Co3  1  0.06645853  0.03322927  0.45138567  1
  Co  Co3  1  0.06645853  0.03322927  0.65138567  1
  Co  Co3  1  0.06645853  0.03322927  0.85138567  1
  Co  Co3  1  0.06645853  0.23322927  0.05138567  1
  Co  Co3  1  0.06645853  0.23322927  0.25138567  1
  Co  Co3  1  0.06645853  0.23322927  0.45138567  1
  Co  Co3  1  0.06645853  0.23322927  0.65138567  1
  Co  Co3  1  0.06645853  0.23322927  0.85138567  1
  Co  Co3  1  0.06645853  0.43322927  0.05138567  1
  Co  Co3  1  0.06645853  0.43322927  0.25138567  1
  Co  Co3  1  0.06645853  0.43322927  0.45138567  1
  Co  Co3  1  0.06645853  0.43322927  0.65138567  1
  Co  Co3  1  0.06645853  0.43322927  0.85138567  1
  Co  Co3  1  0.06645853  0.63322927  0.05138567  1
  Co  Co3  1  0.06645853  0.63322927  0.25138567  1
  Co  Co3  1  0.06645853  0.63322927  0.45138567  1
  Co  Co3  1  0.06645853  0.63322927  0.65138567  1
  Co  Co3  1  0.06645853  0.63322927  0.85138567  1
  Co  Co3  1  0.06645853  0.83322927  0.05138567  1
  Co  Co3  1  0.06645853  0.83322927  0.25138567  1
  Co  Co3  1  0.06645853  0.83322927  0.45138567  1
  Co  Co3  1  0.06645853  0.83322927  0.65138567  1
  Co  Co3  1  0.06645853  0.83322927  0.85138567  1
  Co  Co3  1  0.26645853  0.03322927  0.05138567  1
  Co  Co3  1  0.26645853  0.03322927  0.25138567  1
  Co  Co3  1  0.26645853  0.03322927  0.45138567  1
  Co  Co3  1  0.26645853  0.03322927  0.65138567  1
  Co  Co3  1  0.26645853  0.03322927  0.85138567  1
  Co  Co3  1  0.26645853  0.23322927  0.05138567  1
  Co  Co3  1  0.26645853  0.23322927  0.25138567  1
  Co  Co3  1  0.26645853  0.23322927  0.45138567  1
  Co  Co3  1  0.26645853  0.23322927  0.65138567  1
  Co  Co3  1  0.26645853  0.23322927  0.85138567  1
  Co  Co3  1  0.26645853  0.43322927  0.05138567  1
  Co  Co3  1  0.26645853  0.43322927  0.25138567  1
  Co  Co3  1  0.26645853  0.43322927  0.45138567  1
  Co  Co3  1  0.26645853  0.43322927  0.65138567  1
  Co  Co3  1  0.26645853  0.43322927  0.85138567  1
  Co  Co3  1  0.26645853  0.63322927  0.05138567  1
  Co  Co3  1  0.26645853  0.63322927  0.25138567  1
  Co  Co3  1  0.26645853  0.63322927  0.45138567  1
  Co  Co3  1  0.26645853  0.63322927  0.65138567  1
  Co  Co3  1  0.26645853  0.63322927  0.85138567  1
  Co  Co3  1  0.26645853  0.83322927  0.05138567  1
  Co  Co3  1  0.26645853  0.83322927  0.25138567  1
  Co  Co3  1  0.26645853  0.83322927  0.45138567  1
  Co  Co3  1  0.26645853  0.83322927  0.65138567  1
  Co  Co3  1  0.26645853  0.83322927  0.85138567  1
  Co  Co3  1  0.46645853  0.03322927  0.05138567  1
  Co  Co3  1  0.46645853  0.03322927  0.25138567  1
  Co  Co3  1  0.46645853  0.03322927  0.45138567  1
  Co  Co3  1  0.46645853  0.03322927  0.65138567  1
  Co  Co3  1  0.46645853  0.03322927  0.85138567  1
  Co  Co3  1  0.46645853  0.23322927  0.05138567  1
  Co  Co3  1  0.46645853  0.23322927  0.25138567  1
  Co  Co3  1  0.46645853  0.23322927  0.45138567  1
  Co  Co3  1  0.46645853  0.23322927  0.65138567  1
  Co  Co3  1  0.46645853  0.23322927  0.85138567  1
  Co  Co3  1  0.46645853  0.43322927  0.05138567  1
  Co  Co3  1  0.46645853  0.43322927  0.25138567  1
  Co  Co3  1  0.46645853  0.43322927  0.45138567  1
  Co  Co3  1  0.46645853  0.43322927  0.65138567  1
  Co  Co3  1  0.46645853  0.43322927  0.85138567  1
  Co  Co3  1  0.46645853  0.63322927  0.05138567  1
  Co  Co3  1  0.46645853  0.63322927  0.25138567  1
  Co  Co3  1  0.46645853  0.63322927  0.45138567  1
  Co  Co3  1  0.46645853  0.63322927  0.65138567  1
  Co  Co3  1  0.46645853  0.63322927  0.85138567  1
  Co  Co3  1  0.46645853  0.83322927  0.05138567  1
  Co  Co3  1  0.46645853  0.83322927  0.25138567  1
  Co  Co3  1  0.46645853  0.83322927  0.45138567  1
  Co  Co3  1  0.46645853  0.83322927  0.65138567  1
  Co  Co3  1  0.46645853  0.83322927  0.85138567  1
  Co  Co3  1  0.66645853  0.03322927  0.05138567  1
  Co  Co3  1  0.66645853  0.03322927  0.25138567  1
  Co  Co3  1  0.66645853  0.03322927  0.45138567  1
  Co  Co3  1  0.66645853  0.03322927  0.65138567  1
  Co  Co3  1  0.66645853  0.03322927  0.85138567  1
  Co  Co3  1  0.66645853  0.23322927  0.05138567  1
  Co  Co3  1  0.66645853  0.23322927  0.25138567  1
  Co  Co3  1  0.66645853  0.23322927  0.45138567  1
  Co  Co3  1  0.66645853  0.23322927  0.65138567  1
  Co  Co3  1  0.66645853  0.23322927  0.85138567  1
  Co  Co3  1  0.66645853  0.43322927  0.05138567  1
  Co  Co3  1  0.66645853  0.43322927  0.25138567  1
  Co  Co3  1  0.66645853  0.43322927  0.45138567  1
  Co  Co3  1  0.66645853  0.43322927  0.65138567  1
  Co  Co3  1  0.66645853  0.43322927  0.85138567  1
  Co  Co3  1  0.66645853  0.63322927  0.05138567  1
  Co  Co3  1  0.66645853  0.63322927  0.25138567  1
  Co  Co3  1  0.66645853  0.63322927  0.45138567  1
  Co  Co3  1  0.66645853  0.63322927  0.65138567  1
  Co  Co3  1  0.66645853  0.63322927  0.85138567  1
  Co  Co3  1  0.66645853  0.83322927  0.05138567  1
  Co  Co3  1  0.66645853  0.83322927  0.25138567  1
  Co  Co3  1  0.66645853  0.83322927  0.45138567  1
  Co  Co3  1  0.66645853  0.83322927  0.65138567  1
  Co  Co3  1  0.66645853  0.83322927  0.85138567  1
  Co  Co3  1  0.86645853  0.03322927  0.05138567  1
  Co  Co3  1  0.86645853  0.03322927  0.25138567  1
  Co  Co3  1  0.86645853  0.03322927  0.45138567  1
  Co  Co3  1  0.86645853  0.03322927  0.65138567  1
  Co  Co3  1  0.86645853  0.03322927  0.85138567  1
  Co  Co3  1  0.86645853  0.23322927  0.05138567  1
  Co  Co3  1  0.86645853  0.23322927  0.25138567  1
  Co  Co3  1  0.86645853  0.23322927  0.45138567  1
  Co  Co3  1  0.86645853  0.23322927  0.65138567  1
  Co  Co3  1  0.86645853  0.23322927  0.85138567  1
  Co  Co3  1  0.86645853  0.43322927  0.05138567  1
  Co  Co3  1  0.86645853  0.43322927  0.25138567  1
  Co  Co3  1  0.86645853  0.43322927  0.45138567  1
  Co  Co3  1  0.86645853  0.43322927  0.65138567  1
  Co  Co3  1  0.86645853  0.43322927  0.85138567  1
  Co  Co3  1  0.86645853  0.63322927  0.05138567  1
  Co  Co3  1  0.86645853  0.63322927  0.25138567  1
  Co  Co3  1  0.86645853  0.63322927  0.45138567  1
  Co  Co3  1  0.86645853  0.63322927  0.65138567  1
  Co  Co3  1  0.86645853  0.63322927  0.85138567  1
  Co  Co3  1  0.86645853  0.83322927  0.05138567  1
  Co  Co3  1  0.86645853  0.83322927  0.25138567  1
  Co  Co3  1  0.86645853  0.83322927  0.45138567  1
  Co  Co3  1  0.86645853  0.83322927  0.65138567  1
  Co  Co3  1  0.86645853  0.83322927  0.85138567  1
  Co  Co4  1  0.06687480  0.03343740  0.01528100  1
  Co  Co4  1  0.06687480  0.03343740  0.21528100  1
  Co  Co4  1  0.06687480  0.03343740  0.41528100  1
  Co  Co4  1  0.06687480  0.03343740  0.61528100  1
  Co  Co4  1  0.06687480  0.03343740  0.81528100  1
  Co  Co4  1  0.06687480  0.23343740  0.01528100  1
  Co  Co4  1  0.06687480  0.23343740  0.21528100  1
  Co  Co4  1  0.06687480  0.23343740  0.41528100  1
  Co  Co4  1  0.06687480  0.23343740  0.61528100  1
  Co  Co4  1  0.06687480  0.23343740  0.81528100  1
  Co  Co4  1  0.06687480  0.43343740  0.01528100  1
  Co  Co4  1  0.06687480  0.43343740  0.21528100  1
  Co  Co4  1  0.06687480  0.43343740  0.41528100  1
  Co  Co4  1  0.06687480  0.43343740  0.61528100  1
  Co  Co4  1  0.06687480  0.43343740  0.81528100  1
  Co  Co4  1  0.06687480  0.63343740  0.01528100  1
  Co  Co4  1  0.06687480  0.63343740  0.21528100  1
  Co  Co4  1  0.06687480  0.63343740  0.41528100  1
  Co  Co4  1  0.06687480  0.63343740  0.61528100  1
  Co  Co4  1  0.06687480  0.63343740  0.81528100  1
  Co  Co4  1  0.06687480  0.83343740  0.01528100  1
  Co  Co4  1  0.06687480  0.83343740  0.21528100  1
  Co  Co4  1  0.06687480  0.83343740  0.41528100  1
  Co  Co4  1  0.06687480  0.83343740  0.61528100  1
  Co  Co4  1  0.06687480  0.83343740  0.81528100  1
  Co  Co4  1  0.26687480  0.03343740  0.01528100  1
  Co  Co4  1  0.26687480  0.03343740  0.21528100  1
  Co  Co4  1  0.26687480  0.03343740  0.41528100  1
  Co  Co4  1  0.26687480  0.03343740  0.61528100  1
  Co  Co4  1  0.26687480  0.03343740  0.81528100  1
  Co  Co4  1  0.26687480  0.23343740  0.01528100  1
  Co  Co4  1  0.26687480  0.23343740  0.21528100  1
  Co  Co4  1  0.26687480  0.23343740  0.41528100  1
  Co  Co4  1  0.26687480  0.23343740  0.61528100  1
  Co  Co4  1  0.26687480  0.23343740  0.81528100  1
  Co  Co4  1  0.26687480  0.43343740  0.01528100  1
  Co  Co4  1  0.26687480  0.43343740  0.21528100  1
  Co  Co4  1  0.26687480  0.43343740  0.41528100  1
  Co  Co4  1  0.26687480  0.43343740  0.61528100  1
  Co  Co4  1  0.26687480  0.43343740  0.81528100  1
  Co  Co4  1  0.26687480  0.63343740  0.01528100  1
  Co  Co4  1  0.26687480  0.63343740  0.21528100  1
  Co  Co4  1  0.26687480  0.63343740  0.41528100  1
  Co  Co4  1  0.26687480  0.63343740  0.61528100  1
  Co  Co4  1  0.26687480  0.63343740  0.81528100  1
  Co  Co4  1  0.26687480  0.83343740  0.01528100  1
  Co  Co4  1  0.26687480  0.83343740  0.21528100  1
  Co  Co4  1  0.26687480  0.83343740  0.41528100  1
  Co  Co4  1  0.26687480  0.83343740  0.61528100  1
  Co  Co4  1  0.26687480  0.83343740  0.81528100  1
  Co  Co4  1  0.46687480  0.03343740  0.01528100  1
  Co  Co4  1  0.46687480  0.03343740  0.21528100  1
  Co  Co4  1  0.46687480  0.03343740  0.41528100  1
  Co  Co4  1  0.46687480  0.03343740  0.61528100  1
  Co  Co4  1  0.46687480  0.03343740  0.81528100  1
  Co  Co4  1  0.46687480  0.23343740  0.01528100  1
  Co  Co4  1  0.46687480  0.23343740  0.21528100  1
  Co  Co4  1  0.46687480  0.23343740  0.41528100  1
  Co  Co4  1  0.46687480  0.23343740  0.61528100  1
  Co  Co4  1  0.46687480  0.23343740  0.81528100  1
  Co  Co4  1  0.46687480  0.43343740  0.01528100  1
  Co  Co4  1  0.46687480  0.43343740  0.21528100  1
  Co  Co4  1  0.46687480  0.43343740  0.41528100  1
  Co  Co4  1  0.46687480  0.43343740  0.61528100  1
  Co  Co4  1  0.46687480  0.43343740  0.81528100  1
  Co  Co4  1  0.46687480  0.63343740  0.01528100  1
  Co  Co4  1  0.46687480  0.63343740  0.21528100  1
  Co  Co4  1  0.46687480  0.63343740  0.41528100  1
  Co  Co4  1  0.46687480  0.63343740  0.61528100  1
  Co  Co4  1  0.46687480  0.63343740  0.81528100  1
  Co  Co4  1  0.46687480  0.83343740  0.01528100  1
  Co  Co4  1  0.46687480  0.83343740  0.21528100  1
  Co  Co4  1  0.46687480  0.83343740  0.41528100  1
  Co  Co4  1  0.46687480  0.83343740  0.61528100  1
  Co  Co4  1  0.46687480  0.83343740  0.81528100  1
  Co  Co4  1  0.66687480  0.03343740  0.01528100  1
  Co  Co4  1  0.66687480  0.03343740  0.21528100  1
  Co  Co4  1  0.66687480  0.03343740  0.41528100  1
  Co  Co4  1  0.66687480  0.03343740  0.61528100  1
  Co  Co4  1  0.66687480  0.03343740  0.81528100  1
  Co  Co4  1  0.66687480  0.23343740  0.01528100  1
  Co  Co4  1  0.66687480  0.23343740  0.21528100  1
  Co  Co4  1  0.66687480  0.23343740  0.41528100  1
  Co  Co4  1  0.66687480  0.23343740  0.61528100  1
  Co  Co4  1  0.66687480  0.23343740  0.81528100  1
  Co  Co4  1  0.66687480  0.43343740  0.01528100  1
  Co  Co4  1  0.66687480  0.43343740  0.21528100  1
  Co  Co4  1  0.66687480  0.43343740  0.41528100  1
  Co  Co4  1  0.66687480  0.43343740  0.61528100  1
  Co  Co4  1  0.66687480  0.43343740  0.81528100  1
  Co  Co4  1  0.66687480  0.63343740  0.01528100  1
  Co  Co4  1  0.66687480  0.63343740  0.21528100  1
  Co  Co4  1  0.66687480  0.63343740  0.41528100  1
  Co  Co4  1  0.66687480  0.63343740  0.61528100  1
  Co  Co4  1  0.66687480  0.63343740  0.81528100  1
  Co  Co4  1  0.66687480  0.83343740  0.01528100  1
  Co  Co4  1  0.66687480  0.83343740  0.21528100  1
  Co  Co4  1  0.66687480  0.83343740  0.41528100  1
  Co  Co4  1  0.66687480  0.83343740  0.61528100  1
  Co  Co4  1  0.66687480  0.83343740  0.81528100  1
  Co  Co4  1  0.86687480  0.03343740  0.01528100  1
  Co  Co4  1  0.86687480  0.03343740  0.21528100  1
  Co  Co4  1  0.86687480  0.03343740  0.41528100  1
  Co  Co4  1  0.86687480  0.03343740  0.61528100  1
  Co  Co4  1  0.86687480  0.03343740  0.81528100  1
  Co  Co4  1  0.86687480  0.23343740  0.01528100  1
  Co  Co4  1  0.86687480  0.23343740  0.21528100  1
  Co  Co4  1  0.86687480  0.23343740  0.41528100  1
  Co  Co4  1  0.86687480  0.23343740  0.61528100  1
  Co  Co4  1  0.86687480  0.23343740  0.81528100  1
  Co  Co4  1  0.86687480  0.43343740  0.01528100  1
  Co  Co4  1  0.86687480  0.43343740  0.21528100  1
  Co  Co4  1  0.86687480  0.43343740  0.41528100  1
  Co  Co4  1  0.86687480  0.43343740  0.61528100  1
  Co  Co4  1  0.86687480  0.43343740  0.81528100  1
  Co  Co4  1  0.86687480  0.63343740  0.01528100  1
  Co  Co4  1  0.86687480  0.63343740  0.21528100  1
  Co  Co4  1  0.86687480  0.63343740  0.41528100  1
  Co  Co4  1  0.86687480  0.63343740  0.61528100  1
  Co  Co4  1  0.86687480  0.63343740  0.81528100  1
  Co  Co4  1  0.86687480  0.83343740  0.01528100  1
  Co  Co4  1  0.86687480  0.83343740  0.21528100  1
  Co  Co4  1  0.86687480  0.83343740  0.41528100  1
  Co  Co4  1  0.86687480  0.83343740  0.61528100  1
  Co  Co4  1  0.86687480  0.83343740  0.81528100  1
  Co  Co5  1  0.16656260  0.13312520  0.01528100  1
  Co  Co5  1  0.16656260  0.13312520  0.21528100  1
  Co  Co5  1  0.16656260  0.13312520  0.41528100  1
  Co  Co5  1  0.16656260  0.13312520  0.61528100  1
  Co  Co5  1  0.16656260  0.13312520  0.81528100  1
  Co  Co5  1  0.16656260  0.33312520  0.01528100  1
  Co  Co5  1  0.16656260  0.33312520  0.21528100  1
  Co  Co5  1  0.16656260  0.33312520  0.41528100  1
  Co  Co5  1  0.16656260  0.33312520  0.61528100  1
  Co  Co5  1  0.16656260  0.33312520  0.81528100  1
  Co  Co5  1  0.16656260  0.53312520  0.01528100  1
  Co  Co5  1  0.16656260  0.53312520  0.21528100  1
  Co  Co5  1  0.16656260  0.53312520  0.41528100  1
  Co  Co5  1  0.16656260  0.53312520  0.61528100  1
  Co  Co5  1  0.16656260  0.53312520  0.81528100  1
  Co  Co5  1  0.16656260  0.73312520  0.01528100  1
  Co  Co5  1  0.16656260  0.73312520  0.21528100  1
  Co  Co5  1  0.16656260  0.73312520  0.41528100  1
  Co  Co5  1  0.16656260  0.73312520  0.61528100  1
  Co  Co5  1  0.16656260  0.73312520  0.81528100  1
  Co  Co5  1  0.16656260  0.93312520  0.01528100  1
  Co  Co5  1  0.16656260  0.93312520  0.21528100  1
  Co  Co5  1  0.16656260  0.93312520  0.41528100  1
  Co  Co5  1  0.16656260  0.93312520  0.61528100  1
  Co  Co5  1  0.16656260  0.93312520  0.81528100  1
  Co  Co5  1  0.36656260  0.13312520  0.01528100  1
  Co  Co5  1  0.36656260  0.13312520  0.21528100  1
  Co  Co5  1  0.36656260  0.13312520  0.41528100  1
  Co  Co5  1  0.36656260  0.13312520  0.61528100  1
  Co  Co5  1  0.36656260  0.13312520  0.81528100  1
  Co  Co5  1  0.36656260  0.33312520  0.01528100  1
  Co  Co5  1  0.36656260  0.33312520  0.21528100  1
  Co  Co5  1  0.36656260  0.33312520  0.41528100  1
  Co  Co5  1  0.36656260  0.33312520  0.61528100  1
  Co  Co5  1  0.36656260  0.33312520  0.81528100  1
  Co  Co5  1  0.36656260  0.53312520  0.01528100  1
  Co  Co5  1  0.36656260  0.53312520  0.21528100  1
  Co  Co5  1  0.36656260  0.53312520  0.41528100  1
  Co  Co5  1  0.36656260  0.53312520  0.61528100  1
  Co  Co5  1  0.36656260  0.53312520  0.81528100  1
  Co  Co5  1  0.36656260  0.73312520  0.01528100  1
  Co  Co5  1  0.36656260  0.73312520  0.21528100  1
  Co  Co5  1  0.36656260  0.73312520  0.41528100  1
  Co  Co5  1  0.36656260  0.73312520  0.61528100  1
  Co  Co5  1  0.36656260  0.73312520  0.81528100  1
  Co  Co5  1  0.36656260  0.93312520  0.01528100  1
  Co  Co5  1  0.36656260  0.93312520  0.21528100  1
  Co  Co5  1  0.36656260  0.93312520  0.41528100  1
  Co  Co5  1  0.36656260  0.93312520  0.61528100  1
  Co  Co5  1  0.36656260  0.93312520  0.81528100  1
  Co  Co5  1  0.56656260  0.13312520  0.01528100  1
  Co  Co5  1  0.56656260  0.13312520  0.21528100  1
  Co  Co5  1  0.56656260  0.13312520  0.41528100  1
  Co  Co5  1  0.56656260  0.13312520  0.61528100  1
  Co  Co5  1  0.56656260  0.13312520  0.81528100  1
  Co  Co5  1  0.56656260  0.33312520  0.01528100  1
  Co  Co5  1  0.56656260  0.33312520  0.21528100  1
  Co  Co5  1  0.56656260  0.33312520  0.41528100  1
  Co  Co5  1  0.56656260  0.33312520  0.61528100  1
  Co  Co5  1  0.56656260  0.33312520  0.81528100  1
  Co  Co5  1  0.56656260  0.53312520  0.01528100  1
  Co  Co5  1  0.56656260  0.53312520  0.21528100  1
  Co  Co5  1  0.56656260  0.53312520  0.41528100  1
  Co  Co5  1  0.56656260  0.53312520  0.61528100  1
  Co  Co5  1  0.56656260  0.53312520  0.81528100  1
  Co  Co5  1  0.56656260  0.73312520  0.01528100  1
  Co  Co5  1  0.56656260  0.73312520  0.21528100  1
  Co  Co5  1  0.56656260  0.73312520  0.41528100  1
  Co  Co5  1  0.56656260  0.73312520  0.61528100  1
  Co  Co5  1  0.56656260  0.73312520  0.81528100  1
  Co  Co5  1  0.56656260  0.93312520  0.01528100  1
  Co  Co5  1  0.56656260  0.93312520  0.21528100  1
  Co  Co5  1  0.56656260  0.93312520  0.41528100  1
  Co  Co5  1  0.56656260  0.93312520  0.61528100  1
  Co  Co5  1  0.56656260  0.93312520  0.81528100  1
  Co  Co5  1  0.76656260  0.13312520  0.01528100  1
  Co  Co5  1  0.76656260  0.13312520  0.21528100  1
  Co  Co5  1  0.76656260  0.13312520  0.41528100  1
  Co  Co5  1  0.76656260  0.13312520  0.61528100  1
  Co  Co5  1  0.76656260  0.13312520  0.81528100  1
  Co  Co5  1  0.76656260  0.33312520  0.01528100  1
  Co  Co5  1  0.76656260  0.33312520  0.21528100  1
  Co  Co5  1  0.76656260  0.33312520  0.41528100  1
  Co  Co5  1  0.76656260  0.33312520  0.61528100  1
  Co  Co5  1  0.76656260  0.33312520  0.81528100  1
  Co  Co5  1  0.76656260  0.53312520  0.01528100  1
  Co  Co5  1  0.76656260  0.53312520  0.21528100  1
  Co  Co5  1  0.76656260  0.53312520  0.41528100  1
  Co  Co5  1  0.76656260  0.53312520  0.61528100  1
  Co  Co5  1  0.76656260  0.53312520  0.81528100  1
  Co  Co5  1  0.76656260  0.73312520  0.01528100  1
  Co  Co5  1  0.76656260  0.73312520  0.21528100  1
  Co  Co5  1  0.76656260  0.73312520  0.41528100  1
  Co  Co5  1  0.76656260  0.73312520  0.61528100  1
  Co  Co5  1  0.76656260  0.73312520  0.81528100  1
  Co  Co5  1  0.76656260  0.93312520  0.01528100  1
  Co  Co5  1  0.76656260  0.93312520  0.21528100  1
  Co  Co5  1  0.76656260  0.93312520  0.41528100  1
  Co  Co5  1  0.76656260  0.93312520  0.61528100  1
  Co  Co5  1  0.76656260  0.93312520  0.81528100  1
  Co  Co5  1  0.96656260  0.13312520  0.01528100  1
  Co  Co5  1  0.96656260  0.13312520  0.21528100  1
  Co  Co5  1  0.96656260  0.13312520  0.41528100  1
  Co  Co5  1  0.96656260  0.13312520  0.61528100  1
  Co  Co5  1  0.96656260  0.13312520  0.81528100  1
  Co  Co5  1  0.96656260  0.33312520  0.01528100  1
  Co  Co5  1  0.96656260  0.33312520  0.21528100  1
  Co  Co5  1  0.96656260  0.33312520  0.41528100  1
  Co  Co5  1  0.96656260  0.33312520  0.61528100  1
  Co  Co5  1  0.96656260  0.33312520  0.81528100  1
  Co  Co5  1  0.96656260  0.53312520  0.01528100  1
  Co  Co5  1  0.96656260  0.53312520  0.21528100  1
  Co  Co5  1  0.96656260  0.53312520  0.41528100  1
  Co  Co5  1  0.96656260  0.53312520  0.61528100  1
  Co  Co5  1  0.96656260  0.53312520  0.81528100  1
  Co  Co5  1  0.96656260  0.73312520  0.01528100  1
  Co  Co5  1  0.96656260  0.73312520  0.21528100  1
  Co  Co5  1  0.96656260  0.73312520  0.41528100  1
  Co  Co5  1  0.96656260  0.73312520  0.61528100  1
  Co  Co5  1  0.96656260  0.73312520  0.81528100  1
  Co  Co5  1  0.96656260  0.93312520  0.01528100  1
  Co  Co5  1  0.96656260  0.93312520  0.21528100  1
  Co  Co5  1  0.96656260  0.93312520  0.41528100  1
  Co  Co5  1  0.96656260  0.93312520  0.61528100  1
  Co  Co5  1  0.96656260  0.93312520  0.81528100  1
  Co  Co6  1  0.16656260  0.03343740  0.01528100  1
  Co  Co6  1  0.16656260  0.03343740  0.21528100  1
  Co  Co6  1  0.16656260  0.03343740  0.41528100  1
  Co  Co6  1  0.16656260  0.03343740  0.61528100  1
  Co  Co6  1  0.16656260  0.03343740  0.81528100  1
  Co  Co6  1  0.16656260  0.23343740  0.01528100  1
  Co  Co6  1  0.16656260  0.23343740  0.21528100  1
  Co  Co6  1  0.16656260  0.23343740  0.41528100  1
  Co  Co6  1  0.16656260  0.23343740  0.61528100  1
  Co  Co6  1  0.16656260  0.23343740  0.81528100  1
  Co  Co6  1  0.16656260  0.43343740  0.01528100  1
  Co  Co6  1  0.16656260  0.43343740  0.21528100  1
  Co  Co6  1  0.16656260  0.43343740  0.41528100  1
  Co  Co6  1  0.16656260  0.43343740  0.61528100  1
  Co  Co6  1  0.16656260  0.43343740  0.81528100  1
  Co  Co6  1  0.16656260  0.63343740  0.01528100  1
  Co  Co6  1  0.16656260  0.63343740  0.21528100  1
  Co  Co6  1  0.16656260  0.63343740  0.41528100  1
  Co  Co6  1  0.16656260  0.63343740  0.61528100  1
  Co  Co6  1  0.16656260  0.63343740  0.81528100  1
  Co  Co6  1  0.16656260  0.83343740  0.01528100  1
  Co  Co6  1  0.16656260  0.83343740  0.21528100  1
  Co  Co6  1  0.16656260  0.83343740  0.41528100  1
  Co  Co6  1  0.16656260  0.83343740  0.61528100  1
  Co  Co6  1  0.16656260  0.83343740  0.81528100  1
  Co  Co6  1  0.36656260  0.03343740  0.01528100  1
  Co  Co6  1  0.36656260  0.03343740  0.21528100  1
  Co  Co6  1  0.36656260  0.03343740  0.41528100  1
  Co  Co6  1  0.36656260  0.03343740  0.61528100  1
  Co  Co6  1  0.36656260  0.03343740  0.81528100  1
  Co  Co6  1  0.36656260  0.23343740  0.01528100  1
  Co  Co6  1  0.36656260  0.23343740  0.21528100  1
  Co  Co6  1  0.36656260  0.23343740  0.41528100  1
  Co  Co6  1  0.36656260  0.23343740  0.61528100  1
  Co  Co6  1  0.36656260  0.23343740  0.81528100  1
  Co  Co6  1  0.36656260  0.43343740  0.01528100  1
  Co  Co6  1  0.36656260  0.43343740  0.21528100  1
  Co  Co6  1  0.36656260  0.43343740  0.41528100  1
  Co  Co6  1  0.36656260  0.43343740  0.61528100  1
  Co  Co6  1  0.36656260  0.43343740  0.81528100  1
  Co  Co6  1  0.36656260  0.63343740  0.01528100  1
  Co  Co6  1  0.36656260  0.63343740  0.21528100  1
  Co  Co6  1  0.36656260  0.63343740  0.41528100  1
  Co  Co6  1  0.36656260  0.63343740  0.61528100  1
  Co  Co6  1  0.36656260  0.63343740  0.81528100  1
  Co  Co6  1  0.36656260  0.83343740  0.01528100  1
  Co  Co6  1  0.36656260  0.83343740  0.21528100  1
  Co  Co6  1  0.36656260  0.83343740  0.41528100  1
  Co  Co6  1  0.36656260  0.83343740  0.61528100  1
  Co  Co6  1  0.36656260  0.83343740  0.81528100  1
  Co  Co6  1  0.56656260  0.03343740  0.01528100  1
  Co  Co6  1  0.56656260  0.03343740  0.21528100  1
  Co  Co6  1  0.56656260  0.03343740  0.41528100  1
  Co  Co6  1  0.56656260  0.03343740  0.61528100  1
  Co  Co6  1  0.56656260  0.03343740  0.81528100  1
  Co  Co6  1  0.56656260  0.23343740  0.01528100  1
  Co  Co6  1  0.56656260  0.23343740  0.21528100  1
  Co  Co6  1  0.56656260  0.23343740  0.41528100  1
  Co  Co6  1  0.56656260  0.23343740  0.61528100  1
  Co  Co6  1  0.56656260  0.23343740  0.81528100  1
  Co  Co6  1  0.56656260  0.43343740  0.01528100  1
  Co  Co6  1  0.56656260  0.43343740  0.21528100  1
  Co  Co6  1  0.56656260  0.43343740  0.41528100  1
  Co  Co6  1  0.56656260  0.43343740  0.61528100  1
  Co  Co6  1  0.56656260  0.43343740  0.81528100  1
  Co  Co6  1  0.56656260  0.63343740  0.01528100  1
  Co  Co6  1  0.56656260  0.63343740  0.21528100  1
  Co  Co6  1  0.56656260  0.63343740  0.41528100  1
  Co  Co6  1  0.56656260  0.63343740  0.61528100  1
  Co  Co6  1  0.56656260  0.63343740  0.81528100  1
  Co  Co6  1  0.56656260  0.83343740  0.01528100  1
  Co  Co6  1  0.56656260  0.83343740  0.21528100  1
  Co  Co6  1  0.56656260  0.83343740  0.41528100  1
  Co  Co6  1  0.56656260  0.83343740  0.61528100  1
  Co  Co6  1  0.56656260  0.83343740  0.81528100  1
  Co  Co6  1  0.76656260  0.03343740  0.01528100  1
  Co  Co6  1  0.76656260  0.03343740  0.21528100  1
  Co  Co6  1  0.76656260  0.03343740  0.41528100  1
  Co  Co6  1  0.76656260  0.03343740  0.61528100  1
  Co  Co6  1  0.76656260  0.03343740  0.81528100  1
  Co  Co6  1  0.76656260  0.23343740  0.01528100  1
  Co  Co6  1  0.76656260  0.23343740  0.21528100  1
  Co  Co6  1  0.76656260  0.23343740  0.41528100  1
  Co  Co6  1  0.76656260  0.23343740  0.61528100  1
  Co  Co6  1  0.76656260  0.23343740  0.81528100  1
  Co  Co6  1  0.76656260  0.43343740  0.01528100  1
  Co  Co6  1  0.76656260  0.43343740  0.21528100  1
  Co  Co6  1  0.76656260  0.43343740  0.41528100  1
  Co  Co6  1  0.76656260  0.43343740  0.61528100  1
  Co  Co6  1  0.76656260  0.43343740  0.81528100  1
  Co  Co6  1  0.76656260  0.63343740  0.01528100  1
  Co  Co6  1  0.76656260  0.63343740  0.21528100  1
  Co  Co6  1  0.76656260  0.63343740  0.41528100  1
  Co  Co6  1  0.76656260  0.63343740  0.61528100  1
  Co  Co6  1  0.76656260  0.63343740  0.81528100  1
  Co  Co6  1  0.76656260  0.83343740  0.01528100  1
  Co  Co6  1  0.76656260  0.83343740  0.21528100  1
  Co  Co6  1  0.76656260  0.83343740  0.41528100  1
  Co  Co6  1  0.76656260  0.83343740  0.61528100  1
  Co  Co6  1  0.76656260  0.83343740  0.81528100  1
  Co  Co6  1  0.96656260  0.03343740  0.01528100  1
  Co  Co6  1  0.96656260  0.03343740  0.21528100  1
  Co  Co6  1  0.96656260  0.03343740  0.41528100  1
  Co  Co6  1  0.96656260  0.03343740  0.61528100  1
  Co  Co6  1  0.96656260  0.03343740  0.81528100  1
  Co  Co6  1  0.96656260  0.23343740  0.01528100  1
  Co  Co6  1  0.96656260  0.23343740  0.21528100  1
  Co  Co6  1  0.96656260  0.23343740  0.41528100  1
  Co  Co6  1  0.96656260  0.23343740  0.61528100  1
  Co  Co6  1  0.96656260  0.23343740  0.81528100  1
  Co  Co6  1  0.96656260  0.43343740  0.01528100  1
  Co  Co6  1  0.96656260  0.43343740  0.21528100  1
  Co  Co6  1  0.96656260  0.43343740  0.41528100  1
  Co  Co6  1  0.96656260  0.43343740  0.61528100  1
  Co  Co6  1  0.96656260  0.43343740  0.81528100  1
  Co  Co6  1  0.96656260  0.63343740  0.01528100  1
  Co  Co6  1  0.96656260  0.63343740  0.21528100  1
  Co  Co6  1  0.96656260  0.63343740  0.41528100  1
  Co  Co6  1  0.96656260  0.63343740  0.61528100  1
  Co  Co6  1  0.96656260  0.63343740  0.81528100  1
  Co  Co6  1  0.96656260  0.83343740  0.01528100  1
  Co  Co6  1  0.96656260  0.83343740  0.21528100  1
  Co  Co6  1  0.96656260  0.83343740  0.41528100  1
  Co  Co6  1  0.96656260  0.83343740  0.61528100  1
  Co  Co6  1  0.96656260  0.83343740  0.81528100  1
  Co  Co7  1  0.13333333  0.06666667  0.06666667  1
  Co  Co7  1  0.13333333  0.06666667  0.26666667  1
  Co  Co7  1  0.13333333  0.06666667  0.46666667  1
  Co  Co7  1  0.13333333  0.06666667  0.66666667  1
  Co  Co7  1  0.13333333  0.06666667  0.86666667  1
  Co  Co7  1  0.13333333  0.26666667  0.06666667  1
  Co  Co7  1  0.13333333  0.26666667  0.26666667  1
  Co  Co7  1  0.13333333  0.26666667  0.46666667  1
  Co  Co7  1  0.13333333  0.26666667  0.66666667  1
  Co  Co7  1  0.13333333  0.26666667  0.86666667  1
  Co  Co7  1  0.13333333  0.46666667  0.06666667  1
  Co  Co7  1  0.13333333  0.46666667  0.26666667  1
  Co  Co7  1  0.13333333  0.46666667  0.46666667  1
  Co  Co7  1  0.13333333  0.46666667  0.66666667  1
  Co  Co7  1  0.13333333  0.46666667  0.86666667  1
  Co  Co7  1  0.13333333  0.66666667  0.06666667  1
  Co  Co7  1  0.13333333  0.66666667  0.26666667  1
  Co  Co7  1  0.13333333  0.66666667  0.46666667  1
  Co  Co7  1  0.13333333  0.66666667  0.66666667  1
  Co  Co7  1  0.13333333  0.66666667  0.86666667  1
  Co  Co7  1  0.13333333  0.86666667  0.06666667  1
  Co  Co7  1  0.13333333  0.86666667  0.26666667  1
  Co  Co7  1  0.13333333  0.86666667  0.46666667  1
  Co  Co7  1  0.13333333  0.86666667  0.66666667  1
  Co  Co7  1  0.13333333  0.86666667  0.86666667  1
  Co  Co7  1  0.33333333  0.06666667  0.06666667  1
  Co  Co7  1  0.33333333  0.06666667  0.26666667  1
  Co  Co7  1  0.33333333  0.06666667  0.46666667  1
  Co  Co7  1  0.33333333  0.06666667  0.66666667  1
  Co  Co7  1  0.33333333  0.06666667  0.86666667  1
  Co  Co7  1  0.33333333  0.26666667  0.06666667  1
  Co  Co7  1  0.33333333  0.26666667  0.26666667  1
  Co  Co7  1  0.33333333  0.26666667  0.46666667  1
  Co  Co7  1  0.33333333  0.26666667  0.66666667  1
  Co  Co7  1  0.33333333  0.26666667  0.86666667  1
  Co  Co7  1  0.33333333  0.46666667  0.06666667  1
  Co  Co7  1  0.33333333  0.46666667  0.26666667  1
  Co  Co7  1  0.33333333  0.46666667  0.46666667  1
  Co  Co7  1  0.33333333  0.46666667  0.66666667  1
  Co  Co7  1  0.33333333  0.46666667  0.86666667  1
  Co  Co7  1  0.33333333  0.66666667  0.06666667  1
  Co  Co7  1  0.33333333  0.66666667  0.26666667  1
  Co  Co7  1  0.33333333  0.66666667  0.46666667  1
  Co  Co7  1  0.33333333  0.66666667  0.66666667  1
  Co  Co7  1  0.33333333  0.66666667  0.86666667  1
  Co  Co7  1  0.33333333  0.86666667  0.06666667  1
  Co  Co7  1  0.33333333  0.86666667  0.26666667  1
  Co  Co7  1  0.33333333  0.86666667  0.46666667  1
  Co  Co7  1  0.33333333  0.86666667  0.66666667  1
  Co  Co7  1  0.33333333  0.86666667  0.86666667  1
  Co  Co7  1  0.53333333  0.06666667  0.06666667  1
  Co  Co7  1  0.53333333  0.06666667  0.26666667  1
  Co  Co7  1  0.53333333  0.06666667  0.46666667  1
  Co  Co7  1  0.53333333  0.06666667  0.66666667  1
  Co  Co7  1  0.53333333  0.06666667  0.86666667  1
  Co  Co7  1  0.53333333  0.26666667  0.06666667  1
  Co  Co7  1  0.53333333  0.26666667  0.26666667  1
  Co  Co7  1  0.53333333  0.26666667  0.46666667  1
  Co  Co7  1  0.53333333  0.26666667  0.66666667  1
  Co  Co7  1  0.53333333  0.26666667  0.86666667  1
  Co  Co7  1  0.53333333  0.46666667  0.06666667  1
  Co  Co7  1  0.53333333  0.46666667  0.26666667  1
  Co  Co7  1  0.53333333  0.46666667  0.46666667  1
  Co  Co7  1  0.53333333  0.46666667  0.66666667  1
  Co  Co7  1  0.53333333  0.46666667  0.86666667  1
  Co  Co7  1  0.53333333  0.66666667  0.06666667  1
  Co  Co7  1  0.53333333  0.66666667  0.26666667  1
  Co  Co7  1  0.53333333  0.66666667  0.46666667  1
  Co  Co7  1  0.53333333  0.66666667  0.66666667  1
  Co  Co7  1  0.53333333  0.66666667  0.86666667  1
  Co  Co7  1  0.53333333  0.86666667  0.06666667  1
  Co  Co7  1  0.53333333  0.86666667  0.26666667  1
  Co  Co7  1  0.53333333  0.86666667  0.46666667  1
  Co  Co7  1  0.53333333  0.86666667  0.66666667  1
  Co  Co7  1  0.53333333  0.86666667  0.86666667  1
  Co  Co7  1  0.73333333  0.06666667  0.06666667  1
  Co  Co7  1  0.73333333  0.06666667  0.26666667  1
  Co  Co7  1  0.73333333  0.06666667  0.46666667  1
  Co  Co7  1  0.73333333  0.06666667  0.66666667  1
  Co  Co7  1  0.73333333  0.06666667  0.86666667  1
  Co  Co7  1  0.73333333  0.26666667  0.06666667  1
  Co  Co7  1  0.73333333  0.26666667  0.26666667  1
  Co  Co7  1  0.73333333  0.26666667  0.46666667  1
  Co  Co7  1  0.73333333  0.26666667  0.66666667  1
  Co  Co7  1  0.73333333  0.26666667  0.86666667  1
  Co  Co7  1  0.73333333  0.46666667  0.06666667  1
  Co  Co7  1  0.73333333  0.46666667  0.26666667  1
  Co  Co7  1  0.73333333  0.46666667  0.46666667  1
  Co  Co7  1  0.73333333  0.46666667  0.66666667  1
  Co  Co7  1  0.73333333  0.46666667  0.86666667  1
  Co  Co7  1  0.73333333  0.66666667  0.06666667  1
  Co  Co7  1  0.73333333  0.66666667  0.26666667  1
  Co  Co7  1  0.73333333  0.66666667  0.46666667  1
  Co  Co7  1  0.73333333  0.66666667  0.66666667  1
  Co  Co7  1  0.73333333  0.66666667  0.86666667  1
  Co  Co7  1  0.73333333  0.86666667  0.06666667  1
  Co  Co7  1  0.73333333  0.86666667  0.26666667  1
  Co  Co7  1  0.73333333  0.86666667  0.46666667  1
  Co  Co7  1  0.73333333  0.86666667  0.66666667  1
  Co  Co7  1  0.73333333  0.86666667  0.86666667  1
  Co  Co7  1  0.93333333  0.06666667  0.06666667  1
  Co  Co7  1  0.93333333  0.06666667  0.26666667  1
  Co  Co7  1  0.93333333  0.06666667  0.46666667  1
  Co  Co7  1  0.93333333  0.06666667  0.66666667  1
  Co  Co7  1  0.93333333  0.06666667  0.86666667  1
  Co  Co7  1  0.93333333  0.26666667  0.06666667  1
  Co  Co7  1  0.93333333  0.26666667  0.26666667  1
  Co  Co7  1  0.93333333  0.26666667  0.46666667  1
  Co  Co7  1  0.93333333  0.26666667  0.66666667  1
  Co  Co7  1  0.93333333  0.26666667  0.86666667  1
  Co  Co7  1  0.93333333  0.46666667  0.06666667  1
  Co  Co7  1  0.93333333  0.46666667  0.26666667  1
  Co  Co7  1  0.93333333  0.46666667  0.46666667  1
  Co  Co7  1  0.93333333  0.46666667  0.66666667  1
  Co  Co7  1  0.93333333  0.46666667  0.86666667  1
  Co  Co7  1  0.93333333  0.66666667  0.06666667  1
  Co  Co7  1  0.93333333  0.66666667  0.26666667  1
  Co  Co7  1  0.93333333  0.66666667  0.46666667  1
  Co  Co7  1  0.93333333  0.66666667  0.66666667  1
  Co  Co7  1  0.93333333  0.66666667  0.86666667  1
  Co  Co7  1  0.93333333  0.86666667  0.06666667  1
  Co  Co7  1  0.93333333  0.86666667  0.26666667  1
  Co  Co7  1  0.93333333  0.86666667  0.46666667  1
  Co  Co7  1  0.93333333  0.86666667  0.66666667  1
  Co  Co7  1  0.93333333  0.86666667  0.86666667  1
  Co  Co8  1  0.10010407  0.00020813  0.11805233  1
  Co  Co8  1  0.10010407  0.00020813  0.31805233  1
  Co  Co8  1  0.10010407  0.00020813  0.51805233  1
  Co  Co8  1  0.10010407  0.00020813  0.71805233  1
  Co  Co8  1  0.10010407  0.00020813  0.91805233  1
  Co  Co8  1  0.10010407  0.20020813  0.11805233  1
  Co  Co8  1  0.10010407  0.20020813  0.31805233  1
  Co  Co8  1  0.10010407  0.20020813  0.51805233  1
  Co  Co8  1  0.10010407  0.20020813  0.71805233  1
  Co  Co8  1  0.10010407  0.20020813  0.91805233  1
  Co  Co8  1  0.10010407  0.40020813  0.11805233  1
  Co  Co8  1  0.10010407  0.40020813  0.31805233  1
  Co  Co8  1  0.10010407  0.40020813  0.51805233  1
  Co  Co8  1  0.10010407  0.40020813  0.71805233  1
  Co  Co8  1  0.10010407  0.40020813  0.91805233  1
  Co  Co8  1  0.10010407  0.60020813  0.11805233  1
  Co  Co8  1  0.10010407  0.60020813  0.31805233  1
  Co  Co8  1  0.10010407  0.60020813  0.51805233  1
  Co  Co8  1  0.10010407  0.60020813  0.71805233  1
  Co  Co8  1  0.10010407  0.60020813  0.91805233  1
  Co  Co8  1  0.10010407  0.80020813  0.11805233  1
  Co  Co8  1  0.10010407  0.80020813  0.31805233  1
  Co  Co8  1  0.10010407  0.80020813  0.51805233  1
  Co  Co8  1  0.10010407  0.80020813  0.71805233  1
  Co  Co8  1  0.10010407  0.80020813  0.91805233  1
  Co  Co8  1  0.30010407  0.00020813  0.11805233  1
  Co  Co8  1  0.30010407  0.00020813  0.31805233  1
  Co  Co8  1  0.30010407  0.00020813  0.51805233  1
  Co  Co8  1  0.30010407  0.00020813  0.71805233  1
  Co  Co8  1  0.30010407  0.00020813  0.91805233  1
  Co  Co8  1  0.30010407  0.20020813  0.11805233  1
  Co  Co8  1  0.30010407  0.20020813  0.31805233  1
  Co  Co8  1  0.30010407  0.20020813  0.51805233  1
  Co  Co8  1  0.30010407  0.20020813  0.71805233  1
  Co  Co8  1  0.30010407  0.20020813  0.91805233  1
  Co  Co8  1  0.30010407  0.40020813  0.11805233  1
  Co  Co8  1  0.30010407  0.40020813  0.31805233  1
  Co  Co8  1  0.30010407  0.40020813  0.51805233  1
  Co  Co8  1  0.30010407  0.40020813  0.71805233  1
  Co  Co8  1  0.30010407  0.40020813  0.91805233  1
  Co  Co8  1  0.30010407  0.60020813  0.11805233  1
  Co  Co8  1  0.30010407  0.60020813  0.31805233  1
  Co  Co8  1  0.30010407  0.60020813  0.51805233  1
  Co  Co8  1  0.30010407  0.60020813  0.71805233  1
  Co  Co8  1  0.30010407  0.60020813  0.91805233  1
  Co  Co8  1  0.30010407  0.80020813  0.11805233  1
  Co  Co8  1  0.30010407  0.80020813  0.31805233  1
  Co  Co8  1  0.30010407  0.80020813  0.51805233  1
  Co  Co8  1  0.30010407  0.80020813  0.71805233  1
  Co  Co8  1  0.30010407  0.80020813  0.91805233  1
  Co  Co8  1  0.50010407  0.00020813  0.11805233  1
  Co  Co8  1  0.50010407  0.00020813  0.31805233  1
  Co  Co8  1  0.50010407  0.00020813  0.51805233  1
  Co  Co8  1  0.50010407  0.00020813  0.71805233  1
  Co  Co8  1  0.50010407  0.00020813  0.91805233  1
  Co  Co8  1  0.50010407  0.20020813  0.11805233  1
  Co  Co8  1  0.50010407  0.20020813  0.31805233  1
  Co  Co8  1  0.50010407  0.20020813  0.51805233  1
  Co  Co8  1  0.50010407  0.20020813  0.71805233  1
  Co  Co8  1  0.50010407  0.20020813  0.91805233  1
  Co  Co8  1  0.50010407  0.40020813  0.11805233  1
  Co  Co8  1  0.50010407  0.40020813  0.31805233  1
  Co  Co8  1  0.50010407  0.40020813  0.51805233  1
  Co  Co8  1  0.50010407  0.40020813  0.71805233  1
  Co  Co8  1  0.50010407  0.40020813  0.91805233  1
  Co  Co8  1  0.50010407  0.60020813  0.11805233  1
  Co  Co8  1  0.50010407  0.60020813  0.31805233  1
  Co  Co8  1  0.50010407  0.60020813  0.51805233  1
  Co  Co8  1  0.50010407  0.60020813  0.71805233  1
  Co  Co8  1  0.50010407  0.60020813  0.91805233  1
  Co  Co8  1  0.50010407  0.80020813  0.11805233  1
  Co  Co8  1  0.50010407  0.80020813  0.31805233  1
  Co  Co8  1  0.50010407  0.80020813  0.51805233  1
  Co  Co8  1  0.50010407  0.80020813  0.71805233  1
  Co  Co8  1  0.50010407  0.80020813  0.91805233  1
  Co  Co8  1  0.70010407  0.00020813  0.11805233  1
  Co  Co8  1  0.70010407  0.00020813  0.31805233  1
  Co  Co8  1  0.70010407  0.00020813  0.51805233  1
  Co  Co8  1  0.70010407  0.00020813  0.71805233  1
  Co  Co8  1  0.70010407  0.00020813  0.91805233  1
  Co  Co8  1  0.70010407  0.20020813  0.11805233  1
  Co  Co8  1  0.70010407  0.20020813  0.31805233  1
  Co  Co8  1  0.70010407  0.20020813  0.51805233  1
  Co  Co8  1  0.70010407  0.20020813  0.71805233  1
  Co  Co8  1  0.70010407  0.20020813  0.91805233  1
  Co  Co8  1  0.70010407  0.40020813  0.11805233  1
  Co  Co8  1  0.70010407  0.40020813  0.31805233  1
  Co  Co8  1  0.70010407  0.40020813  0.51805233  1
  Co  Co8  1  0.70010407  0.40020813  0.71805233  1
  Co  Co8  1  0.70010407  0.40020813  0.91805233  1
  Co  Co8  1  0.70010407  0.60020813  0.11805233  1
  Co  Co8  1  0.70010407  0.60020813  0.31805233  1
  Co  Co8  1  0.70010407  0.60020813  0.51805233  1
  Co  Co8  1  0.70010407  0.60020813  0.71805233  1
  Co  Co8  1  0.70010407  0.60020813  0.91805233  1
  Co  Co8  1  0.70010407  0.80020813  0.11805233  1
  Co  Co8  1  0.70010407  0.80020813  0.31805233  1
  Co  Co8  1  0.70010407  0.80020813  0.51805233  1
  Co  Co8  1  0.70010407  0.80020813  0.71805233  1
  Co  Co8  1  0.70010407  0.80020813  0.91805233  1
  Co  Co8  1  0.90010407  0.00020813  0.11805233  1
  Co  Co8  1  0.90010407  0.00020813  0.31805233  1
  Co  Co8  1  0.90010407  0.00020813  0.51805233  1
  Co  Co8  1  0.90010407  0.00020813  0.71805233  1
  Co  Co8  1  0.90010407  0.00020813  0.91805233  1
  Co  Co8  1  0.90010407  0.20020813  0.11805233  1
  Co  Co8  1  0.90010407  0.20020813  0.31805233  1
  Co  Co8  1  0.90010407  0.20020813  0.51805233  1
  Co  Co8  1  0.90010407  0.20020813  0.71805233  1
  Co  Co8  1  0.90010407  0.20020813  0.91805233  1
  Co  Co8  1  0.90010407  0.40020813  0.11805233  1
  Co  Co8  1  0.90010407  0.40020813  0.31805233  1
  Co  Co8  1  0.90010407  0.40020813  0.51805233  1
  Co  Co8  1  0.90010407  0.40020813  0.71805233  1
  Co  Co8  1  0.90010407  0.40020813  0.91805233  1
  Co  Co8  1  0.90010407  0.60020813  0.11805233  1
  Co  Co8  1  0.90010407  0.60020813  0.31805233  1
  Co  Co8  1  0.90010407  0.60020813  0.51805233  1
  Co  Co8  1  0.90010407  0.60020813  0.71805233  1
  Co  Co8  1  0.90010407  0.60020813  0.91805233  1
  Co  Co8  1  0.90010407  0.80020813  0.11805233  1
  Co  Co8  1  0.90010407  0.80020813  0.31805233  1
  Co  Co8  1  0.90010407  0.80020813  0.51805233  1
  Co  Co8  1  0.90010407  0.80020813  0.71805233  1
  Co  Co8  1  0.90010407  0.80020813  0.91805233  1
  Co  Co9  1  0.10010407  0.09989593  0.11805233  1
  Co  Co9  1  0.10010407  0.09989593  0.31805233  1
  Co  Co9  1  0.10010407  0.09989593  0.51805233  1
  Co  Co9  1  0.10010407  0.09989593  0.71805233  1
  Co  Co9  1  0.10010407  0.09989593  0.91805233  1
  Co  Co9  1  0.10010407  0.29989593  0.11805233  1
  Co  Co9  1  0.10010407  0.29989593  0.31805233  1
  Co  Co9  1  0.10010407  0.29989593  0.51805233  1
  Co  Co9  1  0.10010407  0.29989593  0.71805233  1
  Co  Co9  1  0.10010407  0.29989593  0.91805233  1
  Co  Co9  1  0.10010407  0.49989593  0.11805233  1
  Co  Co9  1  0.10010407  0.49989593  0.31805233  1
  Co  Co9  1  0.10010407  0.49989593  0.51805233  1
  Co  Co9  1  0.10010407  0.49989593  0.71805233  1
  Co  Co9  1  0.10010407  0.49989593  0.91805233  1
  Co  Co9  1  0.10010407  0.69989593  0.11805233  1
  Co  Co9  1  0.10010407  0.69989593  0.31805233  1
  Co  Co9  1  0.10010407  0.69989593  0.51805233  1
  Co  Co9  1  0.10010407  0.69989593  0.71805233  1
  Co  Co9  1  0.10010407  0.69989593  0.91805233  1
  Co  Co9  1  0.10010407  0.89989593  0.11805233  1
  Co  Co9  1  0.10010407  0.89989593  0.31805233  1
  Co  Co9  1  0.10010407  0.89989593  0.51805233  1
  Co  Co9  1  0.10010407  0.89989593  0.71805233  1
  Co  Co9  1  0.10010407  0.89989593  0.91805233  1
  Co  Co9  1  0.30010407  0.09989593  0.11805233  1
  Co  Co9  1  0.30010407  0.09989593  0.31805233  1
  Co  Co9  1  0.30010407  0.09989593  0.51805233  1
  Co  Co9  1  0.30010407  0.09989593  0.71805233  1
  Co  Co9  1  0.30010407  0.09989593  0.91805233  1
  Co  Co9  1  0.30010407  0.29989593  0.11805233  1
  Co  Co9  1  0.30010407  0.29989593  0.31805233  1
  Co  Co9  1  0.30010407  0.29989593  0.51805233  1
  Co  Co9  1  0.30010407  0.29989593  0.71805233  1
  Co  Co9  1  0.30010407  0.29989593  0.91805233  1
  Co  Co9  1  0.30010407  0.49989593  0.11805233  1
  Co  Co9  1  0.30010407  0.49989593  0.31805233  1
  Co  Co9  1  0.30010407  0.49989593  0.51805233  1
  Co  Co9  1  0.30010407  0.49989593  0.71805233  1
  Co  Co9  1  0.30010407  0.49989593  0.91805233  1
  Co  Co9  1  0.30010407  0.69989593  0.11805233  1
  Co  Co9  1  0.30010407  0.69989593  0.31805233  1
  Co  Co9  1  0.30010407  0.69989593  0.51805233  1
  Co  Co9  1  0.30010407  0.69989593  0.71805233  1
  Co  Co9  1  0.30010407  0.69989593  0.91805233  1
  Co  Co9  1  0.30010407  0.89989593  0.11805233  1
  Co  Co9  1  0.30010407  0.89989593  0.31805233  1
  Co  Co9  1  0.30010407  0.89989593  0.51805233  1
  Co  Co9  1  0.30010407  0.89989593  0.71805233  1
  Co  Co9  1  0.30010407  0.89989593  0.91805233  1
  Co  Co9  1  0.50010407  0.09989593  0.11805233  1
  Co  Co9  1  0.50010407  0.09989593  0.31805233  1
  Co  Co9  1  0.50010407  0.09989593  0.51805233  1
  Co  Co9  1  0.50010407  0.09989593  0.71805233  1
  Co  Co9  1  0.50010407  0.09989593  0.91805233  1
  Co  Co9  1  0.50010407  0.29989593  0.11805233  1
  Co  Co9  1  0.50010407  0.29989593  0.31805233  1
  Co  Co9  1  0.50010407  0.29989593  0.51805233  1
  Co  Co9  1  0.50010407  0.29989593  0.71805233  1
  Co  Co9  1  0.50010407  0.29989593  0.91805233  1
  Co  Co9  1  0.50010407  0.49989593  0.11805233  1
  Co  Co9  1  0.50010407  0.49989593  0.31805233  1
  Co  Co9  1  0.50010407  0.49989593  0.51805233  1
  Co  Co9  1  0.50010407  0.49989593  0.71805233  1
  Co  Co9  1  0.50010407  0.49989593  0.91805233  1
  Co  Co9  1  0.50010407  0.69989593  0.11805233  1
  Co  Co9  1  0.50010407  0.69989593  0.31805233  1
  Co  Co9  1  0.50010407  0.69989593  0.51805233  1
  Co  Co9  1  0.50010407  0.69989593  0.71805233  1
  Co  Co9  1  0.50010407  0.69989593  0.91805233  1
  Co  Co9  1  0.50010407  0.89989593  0.11805233  1
  Co  Co9  1  0.50010407  0.89989593  0.31805233  1
  Co  Co9  1  0.50010407  0.89989593  0.51805233  1
  Co  Co9  1  0.50010407  0.89989593  0.71805233  1
  Co  Co9  1  0.50010407  0.89989593  0.91805233  1
  Co  Co9  1  0.70010407  0.09989593  0.11805233  1
  Co  Co9  1  0.70010407  0.09989593  0.31805233  1
  Co  Co9  1  0.70010407  0.09989593  0.51805233  1
  Co  Co9  1  0.70010407  0.09989593  0.71805233  1
  Co  Co9  1  0.70010407  0.09989593  0.91805233  1
  Co  Co9  1  0.70010407  0.29989593  0.11805233  1
  Co  Co9  1  0.70010407  0.29989593  0.31805233  1
  Co  Co9  1  0.70010407  0.29989593  0.51805233  1
  Co  Co9  1  0.70010407  0.29989593  0.71805233  1
  Co  Co9  1  0.70010407  0.29989593  0.91805233  1
  Co  Co9  1  0.70010407  0.49989593  0.11805233  1
  Co  Co9  1  0.70010407  0.49989593  0.31805233  1
  Co  Co9  1  0.70010407  0.49989593  0.51805233  1
  Co  Co9  1  0.70010407  0.49989593  0.71805233  1
  Co  Co9  1  0.70010407  0.49989593  0.91805233  1
  Co  Co9  1  0.70010407  0.69989593  0.11805233  1
  Co  Co9  1  0.70010407  0.69989593  0.31805233  1
  Co  Co9  1  0.70010407  0.69989593  0.51805233  1
  Co  Co9  1  0.70010407  0.69989593  0.71805233  1
  Co  Co9  1  0.70010407  0.69989593  0.91805233  1
  Co  Co9  1  0.70010407  0.89989593  0.11805233  1
  Co  Co9  1  0.70010407  0.89989593  0.31805233  1
  Co  Co9  1  0.70010407  0.89989593  0.51805233  1
  Co  Co9  1  0.70010407  0.89989593  0.71805233  1
  Co  Co9  1  0.70010407  0.89989593  0.91805233  1
  Co  Co9  1  0.90010407  0.09989593  0.11805233  1
  Co  Co9  1  0.90010407  0.09989593  0.31805233  1
  Co  Co9  1  0.90010407  0.09989593  0.51805233  1
  Co  Co9  1  0.90010407  0.09989593  0.71805233  1
  Co  Co9  1  0.90010407  0.09989593  0.91805233  1
  Co  Co9  1  0.90010407  0.29989593  0.11805233  1
  Co  Co9  1  0.90010407  0.29989593  0.31805233  1
  Co  Co9  1  0.90010407  0.29989593  0.51805233  1
  Co  Co9  1  0.90010407  0.29989593  0.71805233  1
  Co  Co9  1  0.90010407  0.29989593  0.91805233  1
  Co  Co9  1  0.90010407  0.49989593  0.11805233  1
  Co  Co9  1  0.90010407  0.49989593  0.31805233  1
  Co  Co9  1  0.90010407  0.49989593  0.51805233  1
  Co  Co9  1  0.90010407  0.49989593  0.71805233  1
  Co  Co9  1  0.90010407  0.49989593  0.91805233  1
  Co  Co9  1  0.90010407  0.69989593  0.11805233  1
  Co  Co9  1  0.90010407  0.69989593  0.31805233  1
  Co  Co9  1  0.90010407  0.69989593  0.51805233  1
  Co  Co9  1  0.90010407  0.69989593  0.71805233  1
  Co  Co9  1  0.90010407  0.69989593  0.91805233  1
  Co  Co9  1  0.90010407  0.89989593  0.11805233  1
  Co  Co9  1  0.90010407  0.89989593  0.31805233  1
  Co  Co9  1  0.90010407  0.89989593  0.51805233  1
  Co  Co9  1  0.90010407  0.89989593  0.71805233  1
  Co  Co9  1  0.90010407  0.89989593  0.91805233  1
  Co  Co10  1  0.19979187  0.09989593  0.11805233  1
  Co  Co10  1  0.19979187  0.09989593  0.31805233  1
  Co  Co10  1  0.19979187  0.09989593  0.51805233  1
  Co  Co10  1  0.19979187  0.09989593  0.71805233  1
  Co  Co10  1  0.19979187  0.09989593  0.91805233  1
  Co  Co10  1  0.19979187  0.29989593  0.11805233  1
  Co  Co10  1  0.19979187  0.29989593  0.31805233  1
  Co  Co10  1  0.19979187  0.29989593  0.51805233  1
  Co  Co10  1  0.19979187  0.29989593  0.71805233  1
  Co  Co10  1  0.19979187  0.29989593  0.91805233  1
  Co  Co10  1  0.19979187  0.49989593  0.11805233  1
  Co  Co10  1  0.19979187  0.49989593  0.31805233  1
  Co  Co10  1  0.19979187  0.49989593  0.51805233  1
  Co  Co10  1  0.19979187  0.49989593  0.71805233  1
  Co  Co10  1  0.19979187  0.49989593  0.91805233  1
  Co  Co10  1  0.19979187  0.69989593  0.11805233  1
  Co  Co10  1  0.19979187  0.69989593  0.31805233  1
  Co  Co10  1  0.19979187  0.69989593  0.51805233  1
  Co  Co10  1  0.19979187  0.69989593  0.71805233  1
  Co  Co10  1  0.19979187  0.69989593  0.91805233  1
  Co  Co10  1  0.19979187  0.89989593  0.11805233  1
  Co  Co10  1  0.19979187  0.89989593  0.31805233  1
  Co  Co10  1  0.19979187  0.89989593  0.51805233  1
  Co  Co10  1  0.19979187  0.89989593  0.71805233  1
  Co  Co10  1  0.19979187  0.89989593  0.91805233  1
  Co  Co10  1  0.39979187  0.09989593  0.11805233  1
  Co  Co10  1  0.39979187  0.09989593  0.31805233  1
  Co  Co10  1  0.39979187  0.09989593  0.51805233  1
  Co  Co10  1  0.39979187  0.09989593  0.71805233  1
  Co  Co10  1  0.39979187  0.09989593  0.91805233  1
  Co  Co10  1  0.39979187  0.29989593  0.11805233  1
  Co  Co10  1  0.39979187  0.29989593  0.31805233  1
  Co  Co10  1  0.39979187  0.29989593  0.51805233  1
  Co  Co10  1  0.39979187  0.29989593  0.71805233  1
  Co  Co10  1  0.39979187  0.29989593  0.91805233  1
  Co  Co10  1  0.39979187  0.49989593  0.11805233  1
  Co  Co10  1  0.39979187  0.49989593  0.31805233  1
  Co  Co10  1  0.39979187  0.49989593  0.51805233  1
  Co  Co10  1  0.39979187  0.49989593  0.71805233  1
  Co  Co10  1  0.39979187  0.49989593  0.91805233  1
  Co  Co10  1  0.39979187  0.69989593  0.11805233  1
  Co  Co10  1  0.39979187  0.69989593  0.31805233  1
  Co  Co10  1  0.39979187  0.69989593  0.51805233  1
  Co  Co10  1  0.39979187  0.69989593  0.71805233  1
  Co  Co10  1  0.39979187  0.69989593  0.91805233  1
  Co  Co10  1  0.39979187  0.89989593  0.11805233  1
  Co  Co10  1  0.39979187  0.89989593  0.31805233  1
  Co  Co10  1  0.39979187  0.89989593  0.51805233  1
  Co  Co10  1  0.39979187  0.89989593  0.71805233  1
  Co  Co10  1  0.39979187  0.89989593  0.91805233  1
  Co  Co10  1  0.59979187  0.09989593  0.11805233  1
  Co  Co10  1  0.59979187  0.09989593  0.31805233  1
  Co  Co10  1  0.59979187  0.09989593  0.51805233  1
  Co  Co10  1  0.59979187  0.09989593  0.71805233  1
  Co  Co10  1  0.59979187  0.09989593  0.91805233  1
  Co  Co10  1  0.59979187  0.29989593  0.11805233  1
  Co  Co10  1  0.59979187  0.29989593  0.31805233  1
  Co  Co10  1  0.59979187  0.29989593  0.51805233  1
  Co  Co10  1  0.59979187  0.29989593  0.71805233  1
  Co  Co10  1  0.59979187  0.29989593  0.91805233  1
  Co  Co10  1  0.59979187  0.49989593  0.11805233  1
  Co  Co10  1  0.59979187  0.49989593  0.31805233  1
  Co  Co10  1  0.59979187  0.49989593  0.51805233  1
  Co  Co10  1  0.59979187  0.49989593  0.71805233  1
  Co  Co10  1  0.59979187  0.49989593  0.91805233  1
  Co  Co10  1  0.59979187  0.69989593  0.11805233  1
  Co  Co10  1  0.59979187  0.69989593  0.31805233  1
  Co  Co10  1  0.59979187  0.69989593  0.51805233  1
  Co  Co10  1  0.59979187  0.69989593  0.71805233  1
  Co  Co10  1  0.59979187  0.69989593  0.91805233  1
  Co  Co10  1  0.59979187  0.89989593  0.11805233  1
  Co  Co10  1  0.59979187  0.89989593  0.31805233  1
  Co  Co10  1  0.59979187  0.89989593  0.51805233  1
  Co  Co10  1  0.59979187  0.89989593  0.71805233  1
  Co  Co10  1  0.59979187  0.89989593  0.91805233  1
  Co  Co10  1  0.79979187  0.09989593  0.11805233  1
  Co  Co10  1  0.79979187  0.09989593  0.31805233  1
  Co  Co10  1  0.79979187  0.09989593  0.51805233  1
  Co  Co10  1  0.79979187  0.09989593  0.71805233  1
  Co  Co10  1  0.79979187  0.09989593  0.91805233  1
  Co  Co10  1  0.79979187  0.29989593  0.11805233  1
  Co  Co10  1  0.79979187  0.29989593  0.31805233  1
  Co  Co10  1  0.79979187  0.29989593  0.51805233  1
  Co  Co10  1  0.79979187  0.29989593  0.71805233  1
  Co  Co10  1  0.79979187  0.29989593  0.91805233  1
  Co  Co10  1  0.79979187  0.49989593  0.11805233  1
  Co  Co10  1  0.79979187  0.49989593  0.31805233  1
  Co  Co10  1  0.79979187  0.49989593  0.51805233  1
  Co  Co10  1  0.79979187  0.49989593  0.71805233  1
  Co  Co10  1  0.79979187  0.49989593  0.91805233  1
  Co  Co10  1  0.79979187  0.69989593  0.11805233  1
  Co  Co10  1  0.79979187  0.69989593  0.31805233  1
  Co  Co10  1  0.79979187  0.69989593  0.51805233  1
  Co  Co10  1  0.79979187  0.69989593  0.71805233  1
  Co  Co10  1  0.79979187  0.69989593  0.91805233  1
  Co  Co10  1  0.79979187  0.89989593  0.11805233  1
  Co  Co10  1  0.79979187  0.89989593  0.31805233  1
  Co  Co10  1  0.79979187  0.89989593  0.51805233  1
  Co  Co10  1  0.79979187  0.89989593  0.71805233  1
  Co  Co10  1  0.79979187  0.89989593  0.91805233  1
  Co  Co10  1  0.99979187  0.09989593  0.11805233  1
  Co  Co10  1  0.99979187  0.09989593  0.31805233  1
  Co  Co10  1  0.99979187  0.09989593  0.51805233  1
  Co  Co10  1  0.99979187  0.09989593  0.71805233  1
  Co  Co10  1  0.99979187  0.09989593  0.91805233  1
  Co  Co10  1  0.99979187  0.29989593  0.11805233  1
  Co  Co10  1  0.99979187  0.29989593  0.31805233  1
  Co  Co10  1  0.99979187  0.29989593  0.51805233  1
  Co  Co10  1  0.99979187  0.29989593  0.71805233  1
  Co  Co10  1  0.99979187  0.29989593  0.91805233  1
  Co  Co10  1  0.99979187  0.49989593  0.11805233  1
  Co  Co10  1  0.99979187  0.49989593  0.31805233  1
  Co  Co10  1  0.99979187  0.49989593  0.51805233  1
  Co  Co10  1  0.99979187  0.49989593  0.71805233  1
  Co  Co10  1  0.99979187  0.49989593  0.91805233  1
  Co  Co10  1  0.99979187  0.69989593  0.11805233  1
  Co  Co10  1  0.99979187  0.69989593  0.31805233  1
  Co  Co10  1  0.99979187  0.69989593  0.51805233  1
  Co  Co10  1  0.99979187  0.69989593  0.71805233  1
  Co  Co10  1  0.99979187  0.69989593  0.91805233  1
  Co  Co10  1  0.99979187  0.89989593  0.11805233  1
  Co  Co10  1  0.99979187  0.89989593  0.31805233  1
  Co  Co10  1  0.99979187  0.89989593  0.51805233  1
  Co  Co10  1  0.99979187  0.89989593  0.71805233  1
  Co  Co10  1  0.99979187  0.89989593  0.91805233  1
  Co  Co11  1  0.00020813  0.10010407  0.08194767  1
  Co  Co11  1  0.00020813  0.10010407  0.28194767  1
  Co  Co11  1  0.00020813  0.10010407  0.48194767  1
  Co  Co11  1  0.00020813  0.10010407  0.68194767  1
  Co  Co11  1  0.00020813  0.10010407  0.88194767  1
  Co  Co11  1  0.00020813  0.30010407  0.08194767  1
  Co  Co11  1  0.00020813  0.30010407  0.28194767  1
  Co  Co11  1  0.00020813  0.30010407  0.48194767  1
  Co  Co11  1  0.00020813  0.30010407  0.68194767  1
  Co  Co11  1  0.00020813  0.30010407  0.88194767  1
  Co  Co11  1  0.00020813  0.50010407  0.08194767  1
  Co  Co11  1  0.00020813  0.50010407  0.28194767  1
  Co  Co11  1  0.00020813  0.50010407  0.48194767  1
  Co  Co11  1  0.00020813  0.50010407  0.68194767  1
  Co  Co11  1  0.00020813  0.50010407  0.88194767  1
  Co  Co11  1  0.00020813  0.70010407  0.08194767  1
  Co  Co11  1  0.00020813  0.70010407  0.28194767  1
  Co  Co11  1  0.00020813  0.70010407  0.48194767  1
  Co  Co11  1  0.00020813  0.70010407  0.68194767  1
  Co  Co11  1  0.00020813  0.70010407  0.88194767  1
  Co  Co11  1  0.00020813  0.90010407  0.08194767  1
  Co  Co11  1  0.00020813  0.90010407  0.28194767  1
  Co  Co11  1  0.00020813  0.90010407  0.48194767  1
  Co  Co11  1  0.00020813  0.90010407  0.68194767  1
  Co  Co11  1  0.00020813  0.90010407  0.88194767  1
  Co  Co11  1  0.20020813  0.10010407  0.08194767  1
  Co  Co11  1  0.20020813  0.10010407  0.28194767  1
  Co  Co11  1  0.20020813  0.10010407  0.48194767  1
  Co  Co11  1  0.20020813  0.10010407  0.68194767  1
  Co  Co11  1  0.20020813  0.10010407  0.88194767  1
  Co  Co11  1  0.20020813  0.30010407  0.08194767  1
  Co  Co11  1  0.20020813  0.30010407  0.28194767  1
  Co  Co11  1  0.20020813  0.30010407  0.48194767  1
  Co  Co11  1  0.20020813  0.30010407  0.68194767  1
  Co  Co11  1  0.20020813  0.30010407  0.88194767  1
  Co  Co11  1  0.20020813  0.50010407  0.08194767  1
  Co  Co11  1  0.20020813  0.50010407  0.28194767  1
  Co  Co11  1  0.20020813  0.50010407  0.48194767  1
  Co  Co11  1  0.20020813  0.50010407  0.68194767  1
  Co  Co11  1  0.20020813  0.50010407  0.88194767  1
  Co  Co11  1  0.20020813  0.70010407  0.08194767  1
  Co  Co11  1  0.20020813  0.70010407  0.28194767  1
  Co  Co11  1  0.20020813  0.70010407  0.48194767  1
  Co  Co11  1  0.20020813  0.70010407  0.68194767  1
  Co  Co11  1  0.20020813  0.70010407  0.88194767  1
  Co  Co11  1  0.20020813  0.90010407  0.08194767  1
  Co  Co11  1  0.20020813  0.90010407  0.28194767  1
  Co  Co11  1  0.20020813  0.90010407  0.48194767  1
  Co  Co11  1  0.20020813  0.90010407  0.68194767  1
  Co  Co11  1  0.20020813  0.90010407  0.88194767  1
  Co  Co11  1  0.40020813  0.10010407  0.08194767  1
  Co  Co11  1  0.40020813  0.10010407  0.28194767  1
  Co  Co11  1  0.40020813  0.10010407  0.48194767  1
  Co  Co11  1  0.40020813  0.10010407  0.68194767  1
  Co  Co11  1  0.40020813  0.10010407  0.88194767  1
  Co  Co11  1  0.40020813  0.30010407  0.08194767  1
  Co  Co11  1  0.40020813  0.30010407  0.28194767  1
  Co  Co11  1  0.40020813  0.30010407  0.48194767  1
  Co  Co11  1  0.40020813  0.30010407  0.68194767  1
  Co  Co11  1  0.40020813  0.30010407  0.88194767  1
  Co  Co11  1  0.40020813  0.50010407  0.08194767  1
  Co  Co11  1  0.40020813  0.50010407  0.28194767  1
  Co  Co11  1  0.40020813  0.50010407  0.48194767  1
  Co  Co11  1  0.40020813  0.50010407  0.68194767  1
  Co  Co11  1  0.40020813  0.50010407  0.88194767  1
  Co  Co11  1  0.40020813  0.70010407  0.08194767  1
  Co  Co11  1  0.40020813  0.70010407  0.28194767  1
  Co  Co11  1  0.40020813  0.70010407  0.48194767  1
  Co  Co11  1  0.40020813  0.70010407  0.68194767  1
  Co  Co11  1  0.40020813  0.70010407  0.88194767  1
  Co  Co11  1  0.40020813  0.90010407  0.08194767  1
  Co  Co11  1  0.40020813  0.90010407  0.28194767  1
  Co  Co11  1  0.40020813  0.90010407  0.48194767  1
  Co  Co11  1  0.40020813  0.90010407  0.68194767  1
  Co  Co11  1  0.40020813  0.90010407  0.88194767  1
  Co  Co11  1  0.60020813  0.10010407  0.08194767  1
  Co  Co11  1  0.60020813  0.10010407  0.28194767  1
  Co  Co11  1  0.60020813  0.10010407  0.48194767  1
  Co  Co11  1  0.60020813  0.10010407  0.68194767  1
  Co  Co11  1  0.60020813  0.10010407  0.88194767  1
  Co  Co11  1  0.60020813  0.30010407  0.08194767  1
  Co  Co11  1  0.60020813  0.30010407  0.28194767  1
  Co  Co11  1  0.60020813  0.30010407  0.48194767  1
  Co  Co11  1  0.60020813  0.30010407  0.68194767  1
  Co  Co11  1  0.60020813  0.30010407  0.88194767  1
  Co  Co11  1  0.60020813  0.50010407  0.08194767  1
  Co  Co11  1  0.60020813  0.50010407  0.28194767  1
  Co  Co11  1  0.60020813  0.50010407  0.48194767  1
  Co  Co11  1  0.60020813  0.50010407  0.68194767  1
  Co  Co11  1  0.60020813  0.50010407  0.88194767  1
  Co  Co11  1  0.60020813  0.70010407  0.08194767  1
  Co  Co11  1  0.60020813  0.70010407  0.28194767  1
  Co  Co11  1  0.60020813  0.70010407  0.48194767  1
  Co  Co11  1  0.60020813  0.70010407  0.68194767  1
  Co  Co11  1  0.60020813  0.70010407  0.88194767  1
  Co  Co11  1  0.60020813  0.90010407  0.08194767  1
  Co  Co11  1  0.60020813  0.90010407  0.28194767  1
  Co  Co11  1  0.60020813  0.90010407  0.48194767  1
  Co  Co11  1  0.60020813  0.90010407  0.68194767  1
  Co  Co11  1  0.60020813  0.90010407  0.88194767  1
  Co  Co11  1  0.80020813  0.10010407  0.08194767  1
  Co  Co11  1  0.80020813  0.10010407  0.28194767  1
  Co  Co11  1  0.80020813  0.10010407  0.48194767  1
  Co  Co11  1  0.80020813  0.10010407  0.68194767  1
  Co  Co11  1  0.80020813  0.10010407  0.88194767  1
  Co  Co11  1  0.80020813  0.30010407  0.08194767  1
  Co  Co11  1  0.80020813  0.30010407  0.28194767  1
  Co  Co11  1  0.80020813  0.30010407  0.48194767  1
  Co  Co11  1  0.80020813  0.30010407  0.68194767  1
  Co  Co11  1  0.80020813  0.30010407  0.88194767  1
  Co  Co11  1  0.80020813  0.50010407  0.08194767  1
  Co  Co11  1  0.80020813  0.50010407  0.28194767  1
  Co  Co11  1  0.80020813  0.50010407  0.48194767  1
  Co  Co11  1  0.80020813  0.50010407  0.68194767  1
  Co  Co11  1  0.80020813  0.50010407  0.88194767  1
  Co  Co11  1  0.80020813  0.70010407  0.08194767  1
  Co  Co11  1  0.80020813  0.70010407  0.28194767  1
  Co  Co11  1  0.80020813  0.70010407  0.48194767  1
  Co  Co11  1  0.80020813  0.70010407  0.68194767  1
  Co  Co11  1  0.80020813  0.70010407  0.88194767  1
  Co  Co11  1  0.80020813  0.90010407  0.08194767  1
  Co  Co11  1  0.80020813  0.90010407  0.28194767  1
  Co  Co11  1  0.80020813  0.90010407  0.48194767  1
  Co  Co11  1  0.80020813  0.90010407  0.68194767  1
  Co  Co11  1  0.80020813  0.90010407  0.88194767  1
  Co  Co12  1  0.09989593  0.19979187  0.08194767  1
  Co  Co12  1  0.09989593  0.19979187  0.28194767  1
  Co  Co12  1  0.09989593  0.19979187  0.48194767  1
  Co  Co12  1  0.09989593  0.19979187  0.68194767  1
  Co  Co12  1  0.09989593  0.19979187  0.88194767  1
  Co  Co12  1  0.09989593  0.39979187  0.08194767  1
  Co  Co12  1  0.09989593  0.39979187  0.28194767  1
  Co  Co12  1  0.09989593  0.39979187  0.48194767  1
  Co  Co12  1  0.09989593  0.39979187  0.68194767  1
  Co  Co12  1  0.09989593  0.39979187  0.88194767  1
  Co  Co12  1  0.09989593  0.59979187  0.08194767  1
  Co  Co12  1  0.09989593  0.59979187  0.28194767  1
  Co  Co12  1  0.09989593  0.59979187  0.48194767  1
  Co  Co12  1  0.09989593  0.59979187  0.68194767  1
  Co  Co12  1  0.09989593  0.59979187  0.88194767  1
  Co  Co12  1  0.09989593  0.79979187  0.08194767  1
  Co  Co12  1  0.09989593  0.79979187  0.28194767  1
  Co  Co12  1  0.09989593  0.79979187  0.48194767  1
  Co  Co12  1  0.09989593  0.79979187  0.68194767  1
  Co  Co12  1  0.09989593  0.79979187  0.88194767  1
  Co  Co12  1  0.09989593  0.99979187  0.08194767  1
  Co  Co12  1  0.09989593  0.99979187  0.28194767  1
  Co  Co12  1  0.09989593  0.99979187  0.48194767  1
  Co  Co12  1  0.09989593  0.99979187  0.68194767  1
  Co  Co12  1  0.09989593  0.99979187  0.88194767  1
  Co  Co12  1  0.29989593  0.19979187  0.08194767  1
  Co  Co12  1  0.29989593  0.19979187  0.28194767  1
  Co  Co12  1  0.29989593  0.19979187  0.48194767  1
  Co  Co12  1  0.29989593  0.19979187  0.68194767  1
  Co  Co12  1  0.29989593  0.19979187  0.88194767  1
  Co  Co12  1  0.29989593  0.39979187  0.08194767  1
  Co  Co12  1  0.29989593  0.39979187  0.28194767  1
  Co  Co12  1  0.29989593  0.39979187  0.48194767  1
  Co  Co12  1  0.29989593  0.39979187  0.68194767  1
  Co  Co12  1  0.29989593  0.39979187  0.88194767  1
  Co  Co12  1  0.29989593  0.59979187  0.08194767  1
  Co  Co12  1  0.29989593  0.59979187  0.28194767  1
  Co  Co12  1  0.29989593  0.59979187  0.48194767  1
  Co  Co12  1  0.29989593  0.59979187  0.68194767  1
  Co  Co12  1  0.29989593  0.59979187  0.88194767  1
  Co  Co12  1  0.29989593  0.79979187  0.08194767  1
  Co  Co12  1  0.29989593  0.79979187  0.28194767  1
  Co  Co12  1  0.29989593  0.79979187  0.48194767  1
  Co  Co12  1  0.29989593  0.79979187  0.68194767  1
  Co  Co12  1  0.29989593  0.79979187  0.88194767  1
  Co  Co12  1  0.29989593  0.99979187  0.08194767  1
  Co  Co12  1  0.29989593  0.99979187  0.28194767  1
  Co  Co12  1  0.29989593  0.99979187  0.48194767  1
  Co  Co12  1  0.29989593  0.99979187  0.68194767  1
  Co  Co12  1  0.29989593  0.99979187  0.88194767  1
  Co  Co12  1  0.49989593  0.19979187  0.08194767  1
  Co  Co12  1  0.49989593  0.19979187  0.28194767  1
  Co  Co12  1  0.49989593  0.19979187  0.48194767  1
  Co  Co12  1  0.49989593  0.19979187  0.68194767  1
  Co  Co12  1  0.49989593  0.19979187  0.88194767  1
  Co  Co12  1  0.49989593  0.39979187  0.08194767  1
  Co  Co12  1  0.49989593  0.39979187  0.28194767  1
  Co  Co12  1  0.49989593  0.39979187  0.48194767  1
  Co  Co12  1  0.49989593  0.39979187  0.68194767  1
  Co  Co12  1  0.49989593  0.39979187  0.88194767  1
  Co  Co12  1  0.49989593  0.59979187  0.08194767  1
  Co  Co12  1  0.49989593  0.59979187  0.28194767  1
  Co  Co12  1  0.49989593  0.59979187  0.48194767  1
  Co  Co12  1  0.49989593  0.59979187  0.68194767  1
  Co  Co12  1  0.49989593  0.59979187  0.88194767  1
  Co  Co12  1  0.49989593  0.79979187  0.08194767  1
  Co  Co12  1  0.49989593  0.79979187  0.28194767  1
  Co  Co12  1  0.49989593  0.79979187  0.48194767  1
  Co  Co12  1  0.49989593  0.79979187  0.68194767  1
  Co  Co12  1  0.49989593  0.79979187  0.88194767  1
  Co  Co12  1  0.49989593  0.99979187  0.08194767  1
  Co  Co12  1  0.49989593  0.99979187  0.28194767  1
  Co  Co12  1  0.49989593  0.99979187  0.48194767  1
  Co  Co12  1  0.49989593  0.99979187  0.68194767  1
  Co  Co12  1  0.49989593  0.99979187  0.88194767  1
  Co  Co12  1  0.69989593  0.19979187  0.08194767  1
  Co  Co12  1  0.69989593  0.19979187  0.28194767  1
  Co  Co12  1  0.69989593  0.19979187  0.48194767  1
  Co  Co12  1  0.69989593  0.19979187  0.68194767  1
  Co  Co12  1  0.69989593  0.19979187  0.88194767  1
  Co  Co12  1  0.69989593  0.39979187  0.08194767  1
  Co  Co12  1  0.69989593  0.39979187  0.28194767  1
  Co  Co12  1  0.69989593  0.39979187  0.48194767  1
  Co  Co12  1  0.69989593  0.39979187  0.68194767  1
  Co  Co12  1  0.69989593  0.39979187  0.88194767  1
  Co  Co12  1  0.69989593  0.59979187  0.08194767  1
  Co  Co12  1  0.69989593  0.59979187  0.28194767  1
  Co  Co12  1  0.69989593  0.59979187  0.48194767  1
  Co  Co12  1  0.69989593  0.59979187  0.68194767  1
  Co  Co12  1  0.69989593  0.59979187  0.88194767  1
  Co  Co12  1  0.69989593  0.79979187  0.08194767  1
  Co  Co12  1  0.69989593  0.79979187  0.28194767  1
  Co  Co12  1  0.69989593  0.79979187  0.48194767  1
  Co  Co12  1  0.69989593  0.79979187  0.68194767  1
  Co  Co12  1  0.69989593  0.79979187  0.88194767  1
  Co  Co12  1  0.69989593  0.99979187  0.08194767  1
  Co  Co12  1  0.69989593  0.99979187  0.28194767  1
  Co  Co12  1  0.69989593  0.99979187  0.48194767  1
  Co  Co12  1  0.69989593  0.99979187  0.68194767  1
  Co  Co12  1  0.69989593  0.99979187  0.88194767  1
  Co  Co12  1  0.89989593  0.19979187  0.08194767  1
  Co  Co12  1  0.89989593  0.19979187  0.28194767  1
  Co  Co12  1  0.89989593  0.19979187  0.48194767  1
  Co  Co12  1  0.89989593  0.19979187  0.68194767  1
  Co  Co12  1  0.89989593  0.19979187  0.88194767  1
  Co  Co12  1  0.89989593  0.39979187  0.08194767  1
  Co  Co12  1  0.89989593  0.39979187  0.28194767  1
  Co  Co12  1  0.89989593  0.39979187  0.48194767  1
  Co  Co12  1  0.89989593  0.39979187  0.68194767  1
  Co  Co12  1  0.89989593  0.39979187  0.88194767  1
  Co  Co12  1  0.89989593  0.59979187  0.08194767  1
  Co  Co12  1  0.89989593  0.59979187  0.28194767  1
  Co  Co12  1  0.89989593  0.59979187  0.48194767  1
  Co  Co12  1  0.89989593  0.59979187  0.68194767  1
  Co  Co12  1  0.89989593  0.59979187  0.88194767  1
  Co  Co12  1  0.89989593  0.79979187  0.08194767  1
  Co  Co12  1  0.89989593  0.79979187  0.28194767  1
  Co  Co12  1  0.89989593  0.79979187  0.48194767  1
  Co  Co12  1  0.89989593  0.79979187  0.68194767  1
  Co  Co12  1  0.89989593  0.79979187  0.88194767  1
  Co  Co12  1  0.89989593  0.99979187  0.08194767  1
  Co  Co12  1  0.89989593  0.99979187  0.28194767  1
  Co  Co12  1  0.89989593  0.99979187  0.48194767  1
  Co  Co12  1  0.89989593  0.99979187  0.68194767  1
  Co  Co12  1  0.89989593  0.99979187  0.88194767  1
  Co  Co13  1  0.09989593  0.10010407  0.08194767  1
  Co  Co13  1  0.09989593  0.10010407  0.28194767  1
  Co  Co13  1  0.09989593  0.10010407  0.48194767  1
  Co  Co13  1  0.09989593  0.10010407  0.68194767  1
  Co  Co13  1  0.09989593  0.10010407  0.88194767  1
  Co  Co13  1  0.09989593  0.30010407  0.08194767  1
  Co  Co13  1  0.09989593  0.30010407  0.28194767  1
  Co  Co13  1  0.09989593  0.30010407  0.48194767  1
  Co  Co13  1  0.09989593  0.30010407  0.68194767  1
  Co  Co13  1  0.09989593  0.30010407  0.88194767  1
  Co  Co13  1  0.09989593  0.50010407  0.08194767  1
  Co  Co13  1  0.09989593  0.50010407  0.28194767  1
  Co  Co13  1  0.09989593  0.50010407  0.48194767  1
  Co  Co13  1  0.09989593  0.50010407  0.68194767  1
  Co  Co13  1  0.09989593  0.50010407  0.88194767  1
  Co  Co13  1  0.09989593  0.70010407  0.08194767  1
  Co  Co13  1  0.09989593  0.70010407  0.28194767  1
  Co  Co13  1  0.09989593  0.70010407  0.48194767  1
  Co  Co13  1  0.09989593  0.70010407  0.68194767  1
  Co  Co13  1  0.09989593  0.70010407  0.88194767  1
  Co  Co13  1  0.09989593  0.90010407  0.08194767  1
  Co  Co13  1  0.09989593  0.90010407  0.28194767  1
  Co  Co13  1  0.09989593  0.90010407  0.48194767  1
  Co  Co13  1  0.09989593  0.90010407  0.68194767  1
  Co  Co13  1  0.09989593  0.90010407  0.88194767  1
  Co  Co13  1  0.29989593  0.10010407  0.08194767  1
  Co  Co13  1  0.29989593  0.10010407  0.28194767  1
  Co  Co13  1  0.29989593  0.10010407  0.48194767  1
  Co  Co13  1  0.29989593  0.10010407  0.68194767  1
  Co  Co13  1  0.29989593  0.10010407  0.88194767  1
  Co  Co13  1  0.29989593  0.30010407  0.08194767  1
  Co  Co13  1  0.29989593  0.30010407  0.28194767  1
  Co  Co13  1  0.29989593  0.30010407  0.48194767  1
  Co  Co13  1  0.29989593  0.30010407  0.68194767  1
  Co  Co13  1  0.29989593  0.30010407  0.88194767  1
  Co  Co13  1  0.29989593  0.50010407  0.08194767  1
  Co  Co13  1  0.29989593  0.50010407  0.28194767  1
  Co  Co13  1  0.29989593  0.50010407  0.48194767  1
  Co  Co13  1  0.29989593  0.50010407  0.68194767  1
  Co  Co13  1  0.29989593  0.50010407  0.88194767  1
  Co  Co13  1  0.29989593  0.70010407  0.08194767  1
  Co  Co13  1  0.29989593  0.70010407  0.28194767  1
  Co  Co13  1  0.29989593  0.70010407  0.48194767  1
  Co  Co13  1  0.29989593  0.70010407  0.68194767  1
  Co  Co13  1  0.29989593  0.70010407  0.88194767  1
  Co  Co13  1  0.29989593  0.90010407  0.08194767  1
  Co  Co13  1  0.29989593  0.90010407  0.28194767  1
  Co  Co13  1  0.29989593  0.90010407  0.48194767  1
  Co  Co13  1  0.29989593  0.90010407  0.68194767  1
  Co  Co13  1  0.29989593  0.90010407  0.88194767  1
  Co  Co13  1  0.49989593  0.10010407  0.08194767  1
  Co  Co13  1  0.49989593  0.10010407  0.28194767  1
  Co  Co13  1  0.49989593  0.10010407  0.48194767  1
  Co  Co13  1  0.49989593  0.10010407  0.68194767  1
  Co  Co13  1  0.49989593  0.10010407  0.88194767  1
  Co  Co13  1  0.49989593  0.30010407  0.08194767  1
  Co  Co13  1  0.49989593  0.30010407  0.28194767  1
  Co  Co13  1  0.49989593  0.30010407  0.48194767  1
  Co  Co13  1  0.49989593  0.30010407  0.68194767  1
  Co  Co13  1  0.49989593  0.30010407  0.88194767  1
  Co  Co13  1  0.49989593  0.50010407  0.08194767  1
  Co  Co13  1  0.49989593  0.50010407  0.28194767  1
  Co  Co13  1  0.49989593  0.50010407  0.48194767  1
  Co  Co13  1  0.49989593  0.50010407  0.68194767  1
  Co  Co13  1  0.49989593  0.50010407  0.88194767  1
  Co  Co13  1  0.49989593  0.70010407  0.08194767  1
  Co  Co13  1  0.49989593  0.70010407  0.28194767  1
  Co  Co13  1  0.49989593  0.70010407  0.48194767  1
  Co  Co13  1  0.49989593  0.70010407  0.68194767  1
  Co  Co13  1  0.49989593  0.70010407  0.88194767  1
  Co  Co13  1  0.49989593  0.90010407  0.08194767  1
  Co  Co13  1  0.49989593  0.90010407  0.28194767  1
  Co  Co13  1  0.49989593  0.90010407  0.48194767  1
  Co  Co13  1  0.49989593  0.90010407  0.68194767  1
  Co  Co13  1  0.49989593  0.90010407  0.88194767  1
  Co  Co13  1  0.69989593  0.10010407  0.08194767  1
  Co  Co13  1  0.69989593  0.10010407  0.28194767  1
  Co  Co13  1  0.69989593  0.10010407  0.48194767  1
  Co  Co13  1  0.69989593  0.10010407  0.68194767  1
  Co  Co13  1  0.69989593  0.10010407  0.88194767  1
  Co  Co13  1  0.69989593  0.30010407  0.08194767  1
  Co  Co13  1  0.69989593  0.30010407  0.28194767  1
  Co  Co13  1  0.69989593  0.30010407  0.48194767  1
  Co  Co13  1  0.69989593  0.30010407  0.68194767  1
  Co  Co13  1  0.69989593  0.30010407  0.88194767  1
  Co  Co13  1  0.69989593  0.50010407  0.08194767  1
  Co  Co13  1  0.69989593  0.50010407  0.28194767  1
  Co  Co13  1  0.69989593  0.50010407  0.48194767  1
  Co  Co13  1  0.69989593  0.50010407  0.68194767  1
  Co  Co13  1  0.69989593  0.50010407  0.88194767  1
  Co  Co13  1  0.69989593  0.70010407  0.08194767  1
  Co  Co13  1  0.69989593  0.70010407  0.28194767  1
  Co  Co13  1  0.69989593  0.70010407  0.48194767  1
  Co  Co13  1  0.69989593  0.70010407  0.68194767  1
  Co  Co13  1  0.69989593  0.70010407  0.88194767  1
  Co  Co13  1  0.69989593  0.90010407  0.08194767  1
  Co  Co13  1  0.69989593  0.90010407  0.28194767  1
  Co  Co13  1  0.69989593  0.90010407  0.48194767  1
  Co  Co13  1  0.69989593  0.90010407  0.68194767  1
  Co  Co13  1  0.69989593  0.90010407  0.88194767  1
  Co  Co13  1  0.89989593  0.10010407  0.08194767  1
  Co  Co13  1  0.89989593  0.10010407  0.28194767  1
  Co  Co13  1  0.89989593  0.10010407  0.48194767  1
  Co  Co13  1  0.89989593  0.10010407  0.68194767  1
  Co  Co13  1  0.89989593  0.10010407  0.88194767  1
  Co  Co13  1  0.89989593  0.30010407  0.08194767  1
  Co  Co13  1  0.89989593  0.30010407  0.28194767  1
  Co  Co13  1  0.89989593  0.30010407  0.48194767  1
  Co  Co13  1  0.89989593  0.30010407  0.68194767  1
  Co  Co13  1  0.89989593  0.30010407  0.88194767  1
  Co  Co13  1  0.89989593  0.50010407  0.08194767  1
  Co  Co13  1  0.89989593  0.50010407  0.28194767  1
  Co  Co13  1  0.89989593  0.50010407  0.48194767  1
  Co  Co13  1  0.89989593  0.50010407  0.68194767  1
  Co  Co13  1  0.89989593  0.50010407  0.88194767  1
  Co  Co13  1  0.89989593  0.70010407  0.08194767  1
  Co  Co13  1  0.89989593  0.70010407  0.28194767  1
  Co  Co13  1  0.89989593  0.70010407  0.48194767  1
  Co  Co13  1  0.89989593  0.70010407  0.68194767  1
  Co  Co13  1  0.89989593  0.70010407  0.88194767  1
  Co  Co13  1  0.89989593  0.90010407  0.08194767  1
  Co  Co13  1  0.89989593  0.90010407  0.28194767  1
  Co  Co13  1  0.89989593  0.90010407  0.48194767  1
  Co  Co13  1  0.89989593  0.90010407  0.68194767  1
  Co  Co13  1  0.89989593  0.90010407  0.88194767  1
  Co  Co14  1  0.06666667  0.13333333  0.13333333  1
  Co  Co14  1  0.06666667  0.13333333  0.33333333  1
  Co  Co14  1  0.06666667  0.13333333  0.53333333  1
  Co  Co14  1  0.06666667  0.13333333  0.73333333  1
  Co  Co14  1  0.06666667  0.13333333  0.93333333  1
  Co  Co14  1  0.06666667  0.33333333  0.13333333  1
  Co  Co14  1  0.06666667  0.33333333  0.33333333  1
  Co  Co14  1  0.06666667  0.33333333  0.53333333  1
  Co  Co14  1  0.06666667  0.33333333  0.73333333  1
  Co  Co14  1  0.06666667  0.33333333  0.93333333  1
  Co  Co14  1  0.06666667  0.53333333  0.13333333  1
  Co  Co14  1  0.06666667  0.53333333  0.33333333  1
  Co  Co14  1  0.06666667  0.53333333  0.53333333  1
  Co  Co14  1  0.06666667  0.53333333  0.73333333  1
  Co  Co14  1  0.06666667  0.53333333  0.93333333  1
  Co  Co14  1  0.06666667  0.73333333  0.13333333  1
  Co  Co14  1  0.06666667  0.73333333  0.33333333  1
  Co  Co14  1  0.06666667  0.73333333  0.53333333  1
  Co  Co14  1  0.06666667  0.73333333  0.73333333  1
  Co  Co14  1  0.06666667  0.73333333  0.93333333  1
  Co  Co14  1  0.06666667  0.93333333  0.13333333  1
  Co  Co14  1  0.06666667  0.93333333  0.33333333  1
  Co  Co14  1  0.06666667  0.93333333  0.53333333  1
  Co  Co14  1  0.06666667  0.93333333  0.73333333  1
  Co  Co14  1  0.06666667  0.93333333  0.93333333  1
  Co  Co14  1  0.26666667  0.13333333  0.13333333  1
  Co  Co14  1  0.26666667  0.13333333  0.33333333  1
  Co  Co14  1  0.26666667  0.13333333  0.53333333  1
  Co  Co14  1  0.26666667  0.13333333  0.73333333  1
  Co  Co14  1  0.26666667  0.13333333  0.93333333  1
  Co  Co14  1  0.26666667  0.33333333  0.13333333  1
  Co  Co14  1  0.26666667  0.33333333  0.33333333  1
  Co  Co14  1  0.26666667  0.33333333  0.53333333  1
  Co  Co14  1  0.26666667  0.33333333  0.73333333  1
  Co  Co14  1  0.26666667  0.33333333  0.93333333  1
  Co  Co14  1  0.26666667  0.53333333  0.13333333  1
  Co  Co14  1  0.26666667  0.53333333  0.33333333  1
  Co  Co14  1  0.26666667  0.53333333  0.53333333  1
  Co  Co14  1  0.26666667  0.53333333  0.73333333  1
  Co  Co14  1  0.26666667  0.53333333  0.93333333  1
  Co  Co14  1  0.26666667  0.73333333  0.13333333  1
  Co  Co14  1  0.26666667  0.73333333  0.33333333  1
  Co  Co14  1  0.26666667  0.73333333  0.53333333  1
  Co  Co14  1  0.26666667  0.73333333  0.73333333  1
  Co  Co14  1  0.26666667  0.73333333  0.93333333  1
  Co  Co14  1  0.26666667  0.93333333  0.13333333  1
  Co  Co14  1  0.26666667  0.93333333  0.33333333  1
  Co  Co14  1  0.26666667  0.93333333  0.53333333  1
  Co  Co14  1  0.26666667  0.93333333  0.73333333  1
  Co  Co14  1  0.26666667  0.93333333  0.93333333  1
  Co  Co14  1  0.46666667  0.13333333  0.13333333  1
  Co  Co14  1  0.46666667  0.13333333  0.33333333  1
  Co  Co14  1  0.46666667  0.13333333  0.53333333  1
  Co  Co14  1  0.46666667  0.13333333  0.73333333  1
  Co  Co14  1  0.46666667  0.13333333  0.93333333  1
  Co  Co14  1  0.46666667  0.33333333  0.13333333  1
  Co  Co14  1  0.46666667  0.33333333  0.33333333  1
  Co  Co14  1  0.46666667  0.33333333  0.53333333  1
  Co  Co14  1  0.46666667  0.33333333  0.73333333  1
  Co  Co14  1  0.46666667  0.33333333  0.93333333  1
  Co  Co14  1  0.46666667  0.53333333  0.13333333  1
  Co  Co14  1  0.46666667  0.53333333  0.33333333  1
  Co  Co14  1  0.46666667  0.53333333  0.53333333  1
  Co  Co14  1  0.46666667  0.53333333  0.73333333  1
  Co  Co14  1  0.46666667  0.53333333  0.93333333  1
  Co  Co14  1  0.46666667  0.73333333  0.13333333  1
  Co  Co14  1  0.46666667  0.73333333  0.33333333  1
  Co  Co14  1  0.46666667  0.73333333  0.53333333  1
  Co  Co14  1  0.46666667  0.73333333  0.73333333  1
  Co  Co14  1  0.46666667  0.73333333  0.93333333  1
  Co  Co14  1  0.46666667  0.93333333  0.13333333  1
  Co  Co14  1  0.46666667  0.93333333  0.33333333  1
  Co  Co14  1  0.46666667  0.93333333  0.53333333  1
  Co  Co14  1  0.46666667  0.93333333  0.73333333  1
  Co  Co14  1  0.46666667  0.93333333  0.93333333  1
  Co  Co14  1  0.66666667  0.13333333  0.13333333  1
  Co  Co14  1  0.66666667  0.13333333  0.33333333  1
  Co  Co14  1  0.66666667  0.13333333  0.53333333  1
  Co  Co14  1  0.66666667  0.13333333  0.73333333  1
  Co  Co14  1  0.66666667  0.13333333  0.93333333  1
  Co  Co14  1  0.66666667  0.33333333  0.13333333  1
  Co  Co14  1  0.66666667  0.33333333  0.33333333  1
  Co  Co14  1  0.66666667  0.33333333  0.53333333  1
  Co  Co14  1  0.66666667  0.33333333  0.73333333  1
  Co  Co14  1  0.66666667  0.33333333  0.93333333  1
  Co  Co14  1  0.66666667  0.53333333  0.13333333  1
  Co  Co14  1  0.66666667  0.53333333  0.33333333  1
  Co  Co14  1  0.66666667  0.53333333  0.53333333  1
  Co  Co14  1  0.66666667  0.53333333  0.73333333  1
  Co  Co14  1  0.66666667  0.53333333  0.93333333  1
  Co  Co14  1  0.66666667  0.73333333  0.13333333  1
  Co  Co14  1  0.66666667  0.73333333  0.33333333  1
  Co  Co14  1  0.66666667  0.73333333  0.53333333  1
  Co  Co14  1  0.66666667  0.73333333  0.73333333  1
  Co  Co14  1  0.66666667  0.73333333  0.93333333  1
  Co  Co14  1  0.66666667  0.93333333  0.13333333  1
  Co  Co14  1  0.66666667  0.93333333  0.33333333  1
  Co  Co14  1  0.66666667  0.93333333  0.53333333  1
  Co  Co14  1  0.66666667  0.93333333  0.73333333  1
  Co  Co14  1  0.66666667  0.93333333  0.93333333  1
  Co  Co14  1  0.86666667  0.13333333  0.13333333  1
  Co  Co14  1  0.86666667  0.13333333  0.33333333  1
  Co  Co14  1  0.86666667  0.13333333  0.53333333  1
  Co  Co14  1  0.86666667  0.13333333  0.73333333  1
  Co  Co14  1  0.86666667  0.13333333  0.93333333  1
  Co  Co14  1  0.86666667  0.33333333  0.13333333  1
  Co  Co14  1  0.86666667  0.33333333  0.33333333  1
  Co  Co14  1  0.86666667  0.33333333  0.53333333  1
  Co  Co14  1  0.86666667  0.33333333  0.73333333  1
  Co  Co14  1  0.86666667  0.33333333  0.93333333  1
  Co  Co14  1  0.86666667  0.53333333  0.13333333  1
  Co  Co14  1  0.86666667  0.53333333  0.33333333  1
  Co  Co14  1  0.86666667  0.53333333  0.53333333  1
  Co  Co14  1  0.86666667  0.53333333  0.73333333  1
  Co  Co14  1  0.86666667  0.53333333  0.93333333  1
  Co  Co14  1  0.86666667  0.73333333  0.13333333  1
  Co  Co14  1  0.86666667  0.73333333  0.33333333  1
  Co  Co14  1  0.86666667  0.73333333  0.53333333  1
  Co  Co14  1  0.86666667  0.73333333  0.73333333  1
  Co  Co14  1  0.86666667  0.73333333  0.93333333  1
  Co  Co14  1  0.86666667  0.93333333  0.13333333  1
  Co  Co14  1  0.86666667  0.93333333  0.33333333  1
  Co  Co14  1  0.86666667  0.93333333  0.53333333  1
  Co  Co14  1  0.86666667  0.93333333  0.73333333  1
  Co  Co14  1  0.86666667  0.93333333  0.93333333  1
  Co  Co15  1  0.03343740  0.06687480  0.18471900  1
  Co  Co15  1  0.03343740  0.06687480  0.38471900  1
  Co  Co15  1  0.03343740  0.06687480  0.58471900  1
  Co  Co15  1  0.03343740  0.06687480  0.78471900  1
  Co  Co15  1  0.03343740  0.06687480  0.98471900  1
  Co  Co15  1  0.03343740  0.26687480  0.18471900  1
  Co  Co15  1  0.03343740  0.26687480  0.38471900  1
  Co  Co15  1  0.03343740  0.26687480  0.58471900  1
  Co  Co15  1  0.03343740  0.26687480  0.78471900  1
  Co  Co15  1  0.03343740  0.26687480  0.98471900  1
  Co  Co15  1  0.03343740  0.46687480  0.18471900  1
  Co  Co15  1  0.03343740  0.46687480  0.38471900  1
  Co  Co15  1  0.03343740  0.46687480  0.58471900  1
  Co  Co15  1  0.03343740  0.46687480  0.78471900  1
  Co  Co15  1  0.03343740  0.46687480  0.98471900  1
  Co  Co15  1  0.03343740  0.66687480  0.18471900  1
  Co  Co15  1  0.03343740  0.66687480  0.38471900  1
  Co  Co15  1  0.03343740  0.66687480  0.58471900  1
  Co  Co15  1  0.03343740  0.66687480  0.78471900  1
  Co  Co15  1  0.03343740  0.66687480  0.98471900  1
  Co  Co15  1  0.03343740  0.86687480  0.18471900  1
  Co  Co15  1  0.03343740  0.86687480  0.38471900  1
  Co  Co15  1  0.03343740  0.86687480  0.58471900  1
  Co  Co15  1  0.03343740  0.86687480  0.78471900  1
  Co  Co15  1  0.03343740  0.86687480  0.98471900  1
  Co  Co15  1  0.23343740  0.06687480  0.18471900  1
  Co  Co15  1  0.23343740  0.06687480  0.38471900  1
  Co  Co15  1  0.23343740  0.06687480  0.58471900  1
  Co  Co15  1  0.23343740  0.06687480  0.78471900  1
  Co  Co15  1  0.23343740  0.06687480  0.98471900  1
  Co  Co15  1  0.23343740  0.26687480  0.18471900  1
  Co  Co15  1  0.23343740  0.26687480  0.38471900  1
  Co  Co15  1  0.23343740  0.26687480  0.58471900  1
  Co  Co15  1  0.23343740  0.26687480  0.78471900  1
  Co  Co15  1  0.23343740  0.26687480  0.98471900  1
  Co  Co15  1  0.23343740  0.46687480  0.18471900  1
  Co  Co15  1  0.23343740  0.46687480  0.38471900  1
  Co  Co15  1  0.23343740  0.46687480  0.58471900  1
  Co  Co15  1  0.23343740  0.46687480  0.78471900  1
  Co  Co15  1  0.23343740  0.46687480  0.98471900  1
  Co  Co15  1  0.23343740  0.66687480  0.18471900  1
  Co  Co15  1  0.23343740  0.66687480  0.38471900  1
  Co  Co15  1  0.23343740  0.66687480  0.58471900  1
  Co  Co15  1  0.23343740  0.66687480  0.78471900  1
  Co  Co15  1  0.23343740  0.66687480  0.98471900  1
  Co  Co15  1  0.23343740  0.86687480  0.18471900  1
  Co  Co15  1  0.23343740  0.86687480  0.38471900  1
  Co  Co15  1  0.23343740  0.86687480  0.58471900  1
  Co  Co15  1  0.23343740  0.86687480  0.78471900  1
  Co  Co15  1  0.23343740  0.86687480  0.98471900  1
  Co  Co15  1  0.43343740  0.06687480  0.18471900  1
  Co  Co15  1  0.43343740  0.06687480  0.38471900  1
  Co  Co15  1  0.43343740  0.06687480  0.58471900  1
  Co  Co15  1  0.43343740  0.06687480  0.78471900  1
  Co  Co15  1  0.43343740  0.06687480  0.98471900  1
  Co  Co15  1  0.43343740  0.26687480  0.18471900  1
  Co  Co15  1  0.43343740  0.26687480  0.38471900  1
  Co  Co15  1  0.43343740  0.26687480  0.58471900  1
  Co  Co15  1  0.43343740  0.26687480  0.78471900  1
  Co  Co15  1  0.43343740  0.26687480  0.98471900  1
  Co  Co15  1  0.43343740  0.46687480  0.18471900  1
  Co  Co15  1  0.43343740  0.46687480  0.38471900  1
  Co  Co15  1  0.43343740  0.46687480  0.58471900  1
  Co  Co15  1  0.43343740  0.46687480  0.78471900  1
  Co  Co15  1  0.43343740  0.46687480  0.98471900  1
  Co  Co15  1  0.43343740  0.66687480  0.18471900  1
  Co  Co15  1  0.43343740  0.66687480  0.38471900  1
  Co  Co15  1  0.43343740  0.66687480  0.58471900  1
  Co  Co15  1  0.43343740  0.66687480  0.78471900  1
  Co  Co15  1  0.43343740  0.66687480  0.98471900  1
  Co  Co15  1  0.43343740  0.86687480  0.18471900  1
  Co  Co15  1  0.43343740  0.86687480  0.38471900  1
  Co  Co15  1  0.43343740  0.86687480  0.58471900  1
  Co  Co15  1  0.43343740  0.86687480  0.78471900  1
  Co  Co15  1  0.43343740  0.86687480  0.98471900  1
  Co  Co15  1  0.63343740  0.06687480  0.18471900  1
  Co  Co15  1  0.63343740  0.06687480  0.38471900  1
  Co  Co15  1  0.63343740  0.06687480  0.58471900  1
  Co  Co15  1  0.63343740  0.06687480  0.78471900  1
  Co  Co15  1  0.63343740  0.06687480  0.98471900  1
  Co  Co15  1  0.63343740  0.26687480  0.18471900  1
  Co  Co15  1  0.63343740  0.26687480  0.38471900  1
  Co  Co15  1  0.63343740  0.26687480  0.58471900  1
  Co  Co15  1  0.63343740  0.26687480  0.78471900  1
  Co  Co15  1  0.63343740  0.26687480  0.98471900  1
  Co  Co15  1  0.63343740  0.46687480  0.18471900  1
  Co  Co15  1  0.63343740  0.46687480  0.38471900  1
  Co  Co15  1  0.63343740  0.46687480  0.58471900  1
  Co  Co15  1  0.63343740  0.46687480  0.78471900  1
  Co  Co15  1  0.63343740  0.46687480  0.98471900  1
  Co  Co15  1  0.63343740  0.66687480  0.18471900  1
  Co  Co15  1  0.63343740  0.66687480  0.38471900  1
  Co  Co15  1  0.63343740  0.66687480  0.58471900  1
  Co  Co15  1  0.63343740  0.66687480  0.78471900  1
  Co  Co15  1  0.63343740  0.66687480  0.98471900  1
  Co  Co15  1  0.63343740  0.86687480  0.18471900  1
  Co  Co15  1  0.63343740  0.86687480  0.38471900  1
  Co  Co15  1  0.63343740  0.86687480  0.58471900  1
  Co  Co15  1  0.63343740  0.86687480  0.78471900  1
  Co  Co15  1  0.63343740  0.86687480  0.98471900  1
  Co  Co15  1  0.83343740  0.06687480  0.18471900  1
  Co  Co15  1  0.83343740  0.06687480  0.38471900  1
  Co  Co15  1  0.83343740  0.06687480  0.58471900  1
  Co  Co15  1  0.83343740  0.06687480  0.78471900  1
  Co  Co15  1  0.83343740  0.06687480  0.98471900  1
  Co  Co15  1  0.83343740  0.26687480  0.18471900  1
  Co  Co15  1  0.83343740  0.26687480  0.38471900  1
  Co  Co15  1  0.83343740  0.26687480  0.58471900  1
  Co  Co15  1  0.83343740  0.26687480  0.78471900  1
  Co  Co15  1  0.83343740  0.26687480  0.98471900  1
  Co  Co15  1  0.83343740  0.46687480  0.18471900  1
  Co  Co15  1  0.83343740  0.46687480  0.38471900  1
  Co  Co15  1  0.83343740  0.46687480  0.58471900  1
  Co  Co15  1  0.83343740  0.46687480  0.78471900  1
  Co  Co15  1  0.83343740  0.46687480  0.98471900  1
  Co  Co15  1  0.83343740  0.66687480  0.18471900  1
  Co  Co15  1  0.83343740  0.66687480  0.38471900  1
  Co  Co15  1  0.83343740  0.66687480  0.58471900  1
  Co  Co15  1  0.83343740  0.66687480  0.78471900  1
  Co  Co15  1  0.83343740  0.66687480  0.98471900  1
  Co  Co15  1  0.83343740  0.86687480  0.18471900  1
  Co  Co15  1  0.83343740  0.86687480  0.38471900  1
  Co  Co15  1  0.83343740  0.86687480  0.58471900  1
  Co  Co15  1  0.83343740  0.86687480  0.78471900  1
  Co  Co15  1  0.83343740  0.86687480  0.98471900  1
  Co  Co16  1  0.03343740  0.16656260  0.18471900  1
  Co  Co16  1  0.03343740  0.16656260  0.38471900  1
  Co  Co16  1  0.03343740  0.16656260  0.58471900  1
  Co  Co16  1  0.03343740  0.16656260  0.78471900  1
  Co  Co16  1  0.03343740  0.16656260  0.98471900  1
  Co  Co16  1  0.03343740  0.36656260  0.18471900  1
  Co  Co16  1  0.03343740  0.36656260  0.38471900  1
  Co  Co16  1  0.03343740  0.36656260  0.58471900  1
  Co  Co16  1  0.03343740  0.36656260  0.78471900  1
  Co  Co16  1  0.03343740  0.36656260  0.98471900  1
  Co  Co16  1  0.03343740  0.56656260  0.18471900  1
  Co  Co16  1  0.03343740  0.56656260  0.38471900  1
  Co  Co16  1  0.03343740  0.56656260  0.58471900  1
  Co  Co16  1  0.03343740  0.56656260  0.78471900  1
  Co  Co16  1  0.03343740  0.56656260  0.98471900  1
  Co  Co16  1  0.03343740  0.76656260  0.18471900  1
  Co  Co16  1  0.03343740  0.76656260  0.38471900  1
  Co  Co16  1  0.03343740  0.76656260  0.58471900  1
  Co  Co16  1  0.03343740  0.76656260  0.78471900  1
  Co  Co16  1  0.03343740  0.76656260  0.98471900  1
  Co  Co16  1  0.03343740  0.96656260  0.18471900  1
  Co  Co16  1  0.03343740  0.96656260  0.38471900  1
  Co  Co16  1  0.03343740  0.96656260  0.58471900  1
  Co  Co16  1  0.03343740  0.96656260  0.78471900  1
  Co  Co16  1  0.03343740  0.96656260  0.98471900  1
  Co  Co16  1  0.23343740  0.16656260  0.18471900  1
  Co  Co16  1  0.23343740  0.16656260  0.38471900  1
  Co  Co16  1  0.23343740  0.16656260  0.58471900  1
  Co  Co16  1  0.23343740  0.16656260  0.78471900  1
  Co  Co16  1  0.23343740  0.16656260  0.98471900  1
  Co  Co16  1  0.23343740  0.36656260  0.18471900  1
  Co  Co16  1  0.23343740  0.36656260  0.38471900  1
  Co  Co16  1  0.23343740  0.36656260  0.58471900  1
  Co  Co16  1  0.23343740  0.36656260  0.78471900  1
  Co  Co16  1  0.23343740  0.36656260  0.98471900  1
  Co  Co16  1  0.23343740  0.56656260  0.18471900  1
  Co  Co16  1  0.23343740  0.56656260  0.38471900  1
  Co  Co16  1  0.23343740  0.56656260  0.58471900  1
  Co  Co16  1  0.23343740  0.56656260  0.78471900  1
  Co  Co16  1  0.23343740  0.56656260  0.98471900  1
  Co  Co16  1  0.23343740  0.76656260  0.18471900  1
  Co  Co16  1  0.23343740  0.76656260  0.38471900  1
  Co  Co16  1  0.23343740  0.76656260  0.58471900  1
  Co  Co16  1  0.23343740  0.76656260  0.78471900  1
  Co  Co16  1  0.23343740  0.76656260  0.98471900  1
  Co  Co16  1  0.23343740  0.96656260  0.18471900  1
  Co  Co16  1  0.23343740  0.96656260  0.38471900  1
  Co  Co16  1  0.23343740  0.96656260  0.58471900  1
  Co  Co16  1  0.23343740  0.96656260  0.78471900  1
  Co  Co16  1  0.23343740  0.96656260  0.98471900  1
  Co  Co16  1  0.43343740  0.16656260  0.18471900  1
  Co  Co16  1  0.43343740  0.16656260  0.38471900  1
  Co  Co16  1  0.43343740  0.16656260  0.58471900  1
  Co  Co16  1  0.43343740  0.16656260  0.78471900  1
  Co  Co16  1  0.43343740  0.16656260  0.98471900  1
  Co  Co16  1  0.43343740  0.36656260  0.18471900  1
  Co  Co16  1  0.43343740  0.36656260  0.38471900  1
  Co  Co16  1  0.43343740  0.36656260  0.58471900  1
  Co  Co16  1  0.43343740  0.36656260  0.78471900  1
  Co  Co16  1  0.43343740  0.36656260  0.98471900  1
  Co  Co16  1  0.43343740  0.56656260  0.18471900  1
  Co  Co16  1  0.43343740  0.56656260  0.38471900  1
  Co  Co16  1  0.43343740  0.56656260  0.58471900  1
  Co  Co16  1  0.43343740  0.56656260  0.78471900  1
  Co  Co16  1  0.43343740  0.56656260  0.98471900  1
  Co  Co16  1  0.43343740  0.76656260  0.18471900  1
  Co  Co16  1  0.43343740  0.76656260  0.38471900  1
  Co  Co16  1  0.43343740  0.76656260  0.58471900  1
  Co  Co16  1  0.43343740  0.76656260  0.78471900  1
  Co  Co16  1  0.43343740  0.76656260  0.98471900  1
  Co  Co16  1  0.43343740  0.96656260  0.18471900  1
  Co  Co16  1  0.43343740  0.96656260  0.38471900  1
  Co  Co16  1  0.43343740  0.96656260  0.58471900  1
  Co  Co16  1  0.43343740  0.96656260  0.78471900  1
  Co  Co16  1  0.43343740  0.96656260  0.98471900  1
  Co  Co16  1  0.63343740  0.16656260  0.18471900  1
  Co  Co16  1  0.63343740  0.16656260  0.38471900  1
  Co  Co16  1  0.63343740  0.16656260  0.58471900  1
  Co  Co16  1  0.63343740  0.16656260  0.78471900  1
  Co  Co16  1  0.63343740  0.16656260  0.98471900  1
  Co  Co16  1  0.63343740  0.36656260  0.18471900  1
  Co  Co16  1  0.63343740  0.36656260  0.38471900  1
  Co  Co16  1  0.63343740  0.36656260  0.58471900  1
  Co  Co16  1  0.63343740  0.36656260  0.78471900  1
  Co  Co16  1  0.63343740  0.36656260  0.98471900  1
  Co  Co16  1  0.63343740  0.56656260  0.18471900  1
  Co  Co16  1  0.63343740  0.56656260  0.38471900  1
  Co  Co16  1  0.63343740  0.56656260  0.58471900  1
  Co  Co16  1  0.63343740  0.56656260  0.78471900  1
  Co  Co16  1  0.63343740  0.56656260  0.98471900  1
  Co  Co16  1  0.63343740  0.76656260  0.18471900  1
  Co  Co16  1  0.63343740  0.76656260  0.38471900  1
  Co  Co16  1  0.63343740  0.76656260  0.58471900  1
  Co  Co16  1  0.63343740  0.76656260  0.78471900  1
  Co  Co16  1  0.63343740  0.76656260  0.98471900  1
  Co  Co16  1  0.63343740  0.96656260  0.18471900  1
  Co  Co16  1  0.63343740  0.96656260  0.38471900  1
  Co  Co16  1  0.63343740  0.96656260  0.58471900  1
  Co  Co16  1  0.63343740  0.96656260  0.78471900  1
  Co  Co16  1  0.63343740  0.96656260  0.98471900  1
  Co  Co16  1  0.83343740  0.16656260  0.18471900  1
  Co  Co16  1  0.83343740  0.16656260  0.38471900  1
  Co  Co16  1  0.83343740  0.16656260  0.58471900  1
  Co  Co16  1  0.83343740  0.16656260  0.78471900  1
  Co  Co16  1  0.83343740  0.16656260  0.98471900  1
  Co  Co16  1  0.83343740  0.36656260  0.18471900  1
  Co  Co16  1  0.83343740  0.36656260  0.38471900  1
  Co  Co16  1  0.83343740  0.36656260  0.58471900  1
  Co  Co16  1  0.83343740  0.36656260  0.78471900  1
  Co  Co16  1  0.83343740  0.36656260  0.98471900  1
  Co  Co16  1  0.83343740  0.56656260  0.18471900  1
  Co  Co16  1  0.83343740  0.56656260  0.38471900  1
  Co  Co16  1  0.83343740  0.56656260  0.58471900  1
  Co  Co16  1  0.83343740  0.56656260  0.78471900  1
  Co  Co16  1  0.83343740  0.56656260  0.98471900  1
  Co  Co16  1  0.83343740  0.76656260  0.18471900  1
  Co  Co16  1  0.83343740  0.76656260  0.38471900  1
  Co  Co16  1  0.83343740  0.76656260  0.58471900  1
  Co  Co16  1  0.83343740  0.76656260  0.78471900  1
  Co  Co16  1  0.83343740  0.76656260  0.98471900  1
  Co  Co16  1  0.83343740  0.96656260  0.18471900  1
  Co  Co16  1  0.83343740  0.96656260  0.38471900  1
  Co  Co16  1  0.83343740  0.96656260  0.58471900  1
  Co  Co16  1  0.83343740  0.96656260  0.78471900  1
  Co  Co16  1  0.83343740  0.96656260  0.98471900  1
  Co  Co17  1  0.13312520  0.16656260  0.18471900  1
  Co  Co17  1  0.13312520  0.16656260  0.38471900  1
  Co  Co17  1  0.13312520  0.16656260  0.58471900  1
  Co  Co17  1  0.13312520  0.16656260  0.78471900  1
  Co  Co17  1  0.13312520  0.16656260  0.98471900  1
  Co  Co17  1  0.13312520  0.36656260  0.18471900  1
  Co  Co17  1  0.13312520  0.36656260  0.38471900  1
  Co  Co17  1  0.13312520  0.36656260  0.58471900  1
  Co  Co17  1  0.13312520  0.36656260  0.78471900  1
  Co  Co17  1  0.13312520  0.36656260  0.98471900  1
  Co  Co17  1  0.13312520  0.56656260  0.18471900  1
  Co  Co17  1  0.13312520  0.56656260  0.38471900  1
  Co  Co17  1  0.13312520  0.56656260  0.58471900  1
  Co  Co17  1  0.13312520  0.56656260  0.78471900  1
  Co  Co17  1  0.13312520  0.56656260  0.98471900  1
  Co  Co17  1  0.13312520  0.76656260  0.18471900  1
  Co  Co17  1  0.13312520  0.76656260  0.38471900  1
  Co  Co17  1  0.13312520  0.76656260  0.58471900  1
  Co  Co17  1  0.13312520  0.76656260  0.78471900  1
  Co  Co17  1  0.13312520  0.76656260  0.98471900  1
  Co  Co17  1  0.13312520  0.96656260  0.18471900  1
  Co  Co17  1  0.13312520  0.96656260  0.38471900  1
  Co  Co17  1  0.13312520  0.96656260  0.58471900  1
  Co  Co17  1  0.13312520  0.96656260  0.78471900  1
  Co  Co17  1  0.13312520  0.96656260  0.98471900  1
  Co  Co17  1  0.33312520  0.16656260  0.18471900  1
  Co  Co17  1  0.33312520  0.16656260  0.38471900  1
  Co  Co17  1  0.33312520  0.16656260  0.58471900  1
  Co  Co17  1  0.33312520  0.16656260  0.78471900  1
  Co  Co17  1  0.33312520  0.16656260  0.98471900  1
  Co  Co17  1  0.33312520  0.36656260  0.18471900  1
  Co  Co17  1  0.33312520  0.36656260  0.38471900  1
  Co  Co17  1  0.33312520  0.36656260  0.58471900  1
  Co  Co17  1  0.33312520  0.36656260  0.78471900  1
  Co  Co17  1  0.33312520  0.36656260  0.98471900  1
  Co  Co17  1  0.33312520  0.56656260  0.18471900  1
  Co  Co17  1  0.33312520  0.56656260  0.38471900  1
  Co  Co17  1  0.33312520  0.56656260  0.58471900  1
  Co  Co17  1  0.33312520  0.56656260  0.78471900  1
  Co  Co17  1  0.33312520  0.56656260  0.98471900  1
  Co  Co17  1  0.33312520  0.76656260  0.18471900  1
  Co  Co17  1  0.33312520  0.76656260  0.38471900  1
  Co  Co17  1  0.33312520  0.76656260  0.58471900  1
  Co  Co17  1  0.33312520  0.76656260  0.78471900  1
  Co  Co17  1  0.33312520  0.76656260  0.98471900  1
  Co  Co17  1  0.33312520  0.96656260  0.18471900  1
  Co  Co17  1  0.33312520  0.96656260  0.38471900  1
  Co  Co17  1  0.33312520  0.96656260  0.58471900  1
  Co  Co17  1  0.33312520  0.96656260  0.78471900  1
  Co  Co17  1  0.33312520  0.96656260  0.98471900  1
  Co  Co17  1  0.53312520  0.16656260  0.18471900  1
  Co  Co17  1  0.53312520  0.16656260  0.38471900  1
  Co  Co17  1  0.53312520  0.16656260  0.58471900  1
  Co  Co17  1  0.53312520  0.16656260  0.78471900  1
  Co  Co17  1  0.53312520  0.16656260  0.98471900  1
  Co  Co17  1  0.53312520  0.36656260  0.18471900  1
  Co  Co17  1  0.53312520  0.36656260  0.38471900  1
  Co  Co17  1  0.53312520  0.36656260  0.58471900  1
  Co  Co17  1  0.53312520  0.36656260  0.78471900  1
  Co  Co17  1  0.53312520  0.36656260  0.98471900  1
  Co  Co17  1  0.53312520  0.56656260  0.18471900  1
  Co  Co17  1  0.53312520  0.56656260  0.38471900  1
  Co  Co17  1  0.53312520  0.56656260  0.58471900  1
  Co  Co17  1  0.53312520  0.56656260  0.78471900  1
  Co  Co17  1  0.53312520  0.56656260  0.98471900  1
  Co  Co17  1  0.53312520  0.76656260  0.18471900  1
  Co  Co17  1  0.53312520  0.76656260  0.38471900  1
  Co  Co17  1  0.53312520  0.76656260  0.58471900  1
  Co  Co17  1  0.53312520  0.76656260  0.78471900  1
  Co  Co17  1  0.53312520  0.76656260  0.98471900  1
  Co  Co17  1  0.53312520  0.96656260  0.18471900  1
  Co  Co17  1  0.53312520  0.96656260  0.38471900  1
  Co  Co17  1  0.53312520  0.96656260  0.58471900  1
  Co  Co17  1  0.53312520  0.96656260  0.78471900  1
  Co  Co17  1  0.53312520  0.96656260  0.98471900  1
  Co  Co17  1  0.73312520  0.16656260  0.18471900  1
  Co  Co17  1  0.73312520  0.16656260  0.38471900  1
  Co  Co17  1  0.73312520  0.16656260  0.58471900  1
  Co  Co17  1  0.73312520  0.16656260  0.78471900  1
  Co  Co17  1  0.73312520  0.16656260  0.98471900  1
  Co  Co17  1  0.73312520  0.36656260  0.18471900  1
  Co  Co17  1  0.73312520  0.36656260  0.38471900  1
  Co  Co17  1  0.73312520  0.36656260  0.58471900  1
  Co  Co17  1  0.73312520  0.36656260  0.78471900  1
  Co  Co17  1  0.73312520  0.36656260  0.98471900  1
  Co  Co17  1  0.73312520  0.56656260  0.18471900  1
  Co  Co17  1  0.73312520  0.56656260  0.38471900  1
  Co  Co17  1  0.73312520  0.56656260  0.58471900  1
  Co  Co17  1  0.73312520  0.56656260  0.78471900  1
  Co  Co17  1  0.73312520  0.56656260  0.98471900  1
  Co  Co17  1  0.73312520  0.76656260  0.18471900  1
  Co  Co17  1  0.73312520  0.76656260  0.38471900  1
  Co  Co17  1  0.73312520  0.76656260  0.58471900  1
  Co  Co17  1  0.73312520  0.76656260  0.78471900  1
  Co  Co17  1  0.73312520  0.76656260  0.98471900  1
  Co  Co17  1  0.73312520  0.96656260  0.18471900  1
  Co  Co17  1  0.73312520  0.96656260  0.38471900  1
  Co  Co17  1  0.73312520  0.96656260  0.58471900  1
  Co  Co17  1  0.73312520  0.96656260  0.78471900  1
  Co  Co17  1  0.73312520  0.96656260  0.98471900  1
  Co  Co17  1  0.93312520  0.16656260  0.18471900  1
  Co  Co17  1  0.93312520  0.16656260  0.38471900  1
  Co  Co17  1  0.93312520  0.16656260  0.58471900  1
  Co  Co17  1  0.93312520  0.16656260  0.78471900  1
  Co  Co17  1  0.93312520  0.16656260  0.98471900  1
  Co  Co17  1  0.93312520  0.36656260  0.18471900  1
  Co  Co17  1  0.93312520  0.36656260  0.38471900  1
  Co  Co17  1  0.93312520  0.36656260  0.58471900  1
  Co  Co17  1  0.93312520  0.36656260  0.78471900  1
  Co  Co17  1  0.93312520  0.36656260  0.98471900  1
  Co  Co17  1  0.93312520  0.56656260  0.18471900  1
  Co  Co17  1  0.93312520  0.56656260  0.38471900  1
  Co  Co17  1  0.93312520  0.56656260  0.58471900  1
  Co  Co17  1  0.93312520  0.56656260  0.78471900  1
  Co  Co17  1  0.93312520  0.56656260  0.98471900  1
  Co  Co17  1  0.93312520  0.76656260  0.18471900  1
  Co  Co17  1  0.93312520  0.76656260  0.38471900  1
  Co  Co17  1  0.93312520  0.76656260  0.58471900  1
  Co  Co17  1  0.93312520  0.76656260  0.78471900  1
  Co  Co17  1  0.93312520  0.76656260  0.98471900  1
  Co  Co17  1  0.93312520  0.96656260  0.18471900  1
  Co  Co17  1  0.93312520  0.96656260  0.38471900  1
  Co  Co17  1  0.93312520  0.96656260  0.58471900  1
  Co  Co17  1  0.93312520  0.96656260  0.78471900  1
  Co  Co17  1  0.93312520  0.96656260  0.98471900  1
  Co  Co18  1  0.13354147  0.16677073  0.14861433  1
  Co  Co18  1  0.13354147  0.16677073  0.34861433  1
  Co  Co18  1  0.13354147  0.16677073  0.54861433  1
  Co  Co18  1  0.13354147  0.16677073  0.74861433  1
  Co  Co18  1  0.13354147  0.16677073  0.94861433  1
  Co  Co18  1  0.13354147  0.36677073  0.14861433  1
  Co  Co18  1  0.13354147  0.36677073  0.34861433  1
  Co  Co18  1  0.13354147  0.36677073  0.54861433  1
  Co  Co18  1  0.13354147  0.36677073  0.74861433  1
  Co  Co18  1  0.13354147  0.36677073  0.94861433  1
  Co  Co18  1  0.13354147  0.56677073  0.14861433  1
  Co  Co18  1  0.13354147  0.56677073  0.34861433  1
  Co  Co18  1  0.13354147  0.56677073  0.54861433  1
  Co  Co18  1  0.13354147  0.56677073  0.74861433  1
  Co  Co18  1  0.13354147  0.56677073  0.94861433  1
  Co  Co18  1  0.13354147  0.76677073  0.14861433  1
  Co  Co18  1  0.13354147  0.76677073  0.34861433  1
  Co  Co18  1  0.13354147  0.76677073  0.54861433  1
  Co  Co18  1  0.13354147  0.76677073  0.74861433  1
  Co  Co18  1  0.13354147  0.76677073  0.94861433  1
  Co  Co18  1  0.13354147  0.96677073  0.14861433  1
  Co  Co18  1  0.13354147  0.96677073  0.34861433  1
  Co  Co18  1  0.13354147  0.96677073  0.54861433  1
  Co  Co18  1  0.13354147  0.96677073  0.74861433  1
  Co  Co18  1  0.13354147  0.96677073  0.94861433  1
  Co  Co18  1  0.33354147  0.16677073  0.14861433  1
  Co  Co18  1  0.33354147  0.16677073  0.34861433  1
  Co  Co18  1  0.33354147  0.16677073  0.54861433  1
  Co  Co18  1  0.33354147  0.16677073  0.74861433  1
  Co  Co18  1  0.33354147  0.16677073  0.94861433  1
  Co  Co18  1  0.33354147  0.36677073  0.14861433  1
  Co  Co18  1  0.33354147  0.36677073  0.34861433  1
  Co  Co18  1  0.33354147  0.36677073  0.54861433  1
  Co  Co18  1  0.33354147  0.36677073  0.74861433  1
  Co  Co18  1  0.33354147  0.36677073  0.94861433  1
  Co  Co18  1  0.33354147  0.56677073  0.14861433  1
  Co  Co18  1  0.33354147  0.56677073  0.34861433  1
  Co  Co18  1  0.33354147  0.56677073  0.54861433  1
  Co  Co18  1  0.33354147  0.56677073  0.74861433  1
  Co  Co18  1  0.33354147  0.56677073  0.94861433  1
  Co  Co18  1  0.33354147  0.76677073  0.14861433  1
  Co  Co18  1  0.33354147  0.76677073  0.34861433  1
  Co  Co18  1  0.33354147  0.76677073  0.54861433  1
  Co  Co18  1  0.33354147  0.76677073  0.74861433  1
  Co  Co18  1  0.33354147  0.76677073  0.94861433  1
  Co  Co18  1  0.33354147  0.96677073  0.14861433  1
  Co  Co18  1  0.33354147  0.96677073  0.34861433  1
  Co  Co18  1  0.33354147  0.96677073  0.54861433  1
  Co  Co18  1  0.33354147  0.96677073  0.74861433  1
  Co  Co18  1  0.33354147  0.96677073  0.94861433  1
  Co  Co18  1  0.53354147  0.16677073  0.14861433  1
  Co  Co18  1  0.53354147  0.16677073  0.34861433  1
  Co  Co18  1  0.53354147  0.16677073  0.54861433  1
  Co  Co18  1  0.53354147  0.16677073  0.74861433  1
  Co  Co18  1  0.53354147  0.16677073  0.94861433  1
  Co  Co18  1  0.53354147  0.36677073  0.14861433  1
  Co  Co18  1  0.53354147  0.36677073  0.34861433  1
  Co  Co18  1  0.53354147  0.36677073  0.54861433  1
  Co  Co18  1  0.53354147  0.36677073  0.74861433  1
  Co  Co18  1  0.53354147  0.36677073  0.94861433  1
  Co  Co18  1  0.53354147  0.56677073  0.14861433  1
  Co  Co18  1  0.53354147  0.56677073  0.34861433  1
  Co  Co18  1  0.53354147  0.56677073  0.54861433  1
  Co  Co18  1  0.53354147  0.56677073  0.74861433  1
  Co  Co18  1  0.53354147  0.56677073  0.94861433  1
  Co  Co18  1  0.53354147  0.76677073  0.14861433  1
  Co  Co18  1  0.53354147  0.76677073  0.34861433  1
  Co  Co18  1  0.53354147  0.76677073  0.54861433  1
  Co  Co18  1  0.53354147  0.76677073  0.74861433  1
  Co  Co18  1  0.53354147  0.76677073  0.94861433  1
  Co  Co18  1  0.53354147  0.96677073  0.14861433  1
  Co  Co18  1  0.53354147  0.96677073  0.34861433  1
  Co  Co18  1  0.53354147  0.96677073  0.54861433  1
  Co  Co18  1  0.53354147  0.96677073  0.74861433  1
  Co  Co18  1  0.53354147  0.96677073  0.94861433  1
  Co  Co18  1  0.73354147  0.16677073  0.14861433  1
  Co  Co18  1  0.73354147  0.16677073  0.34861433  1
  Co  Co18  1  0.73354147  0.16677073  0.54861433  1
  Co  Co18  1  0.73354147  0.16677073  0.74861433  1
  Co  Co18  1  0.73354147  0.16677073  0.94861433  1
  Co  Co18  1  0.73354147  0.36677073  0.14861433  1
  Co  Co18  1  0.73354147  0.36677073  0.34861433  1
  Co  Co18  1  0.73354147  0.36677073  0.54861433  1
  Co  Co18  1  0.73354147  0.36677073  0.74861433  1
  Co  Co18  1  0.73354147  0.36677073  0.94861433  1
  Co  Co18  1  0.73354147  0.56677073  0.14861433  1
  Co  Co18  1  0.73354147  0.56677073  0.34861433  1
  Co  Co18  1  0.73354147  0.56677073  0.54861433  1
  Co  Co18  1  0.73354147  0.56677073  0.74861433  1
  Co  Co18  1  0.73354147  0.56677073  0.94861433  1
  Co  Co18  1  0.73354147  0.76677073  0.14861433  1
  Co  Co18  1  0.73354147  0.76677073  0.34861433  1
  Co  Co18  1  0.73354147  0.76677073  0.54861433  1
  Co  Co18  1  0.73354147  0.76677073  0.74861433  1
  Co  Co18  1  0.73354147  0.76677073  0.94861433  1
  Co  Co18  1  0.73354147  0.96677073  0.14861433  1
  Co  Co18  1  0.73354147  0.96677073  0.34861433  1
  Co  Co18  1  0.73354147  0.96677073  0.54861433  1
  Co  Co18  1  0.73354147  0.96677073  0.74861433  1
  Co  Co18  1  0.73354147  0.96677073  0.94861433  1
  Co  Co18  1  0.93354147  0.16677073  0.14861433  1
  Co  Co18  1  0.93354147  0.16677073  0.34861433  1
  Co  Co18  1  0.93354147  0.16677073  0.54861433  1
  Co  Co18  1  0.93354147  0.16677073  0.74861433  1
  Co  Co18  1  0.93354147  0.16677073  0.94861433  1
  Co  Co18  1  0.93354147  0.36677073  0.14861433  1
  Co  Co18  1  0.93354147  0.36677073  0.34861433  1
  Co  Co18  1  0.93354147  0.36677073  0.54861433  1
  Co  Co18  1  0.93354147  0.36677073  0.74861433  1
  Co  Co18  1  0.93354147  0.36677073  0.94861433  1
  Co  Co18  1  0.93354147  0.56677073  0.14861433  1
  Co  Co18  1  0.93354147  0.56677073  0.34861433  1
  Co  Co18  1  0.93354147  0.56677073  0.54861433  1
  Co  Co18  1  0.93354147  0.56677073  0.74861433  1
  Co  Co18  1  0.93354147  0.56677073  0.94861433  1
  Co  Co18  1  0.93354147  0.76677073  0.14861433  1
  Co  Co18  1  0.93354147  0.76677073  0.34861433  1
  Co  Co18  1  0.93354147  0.76677073  0.54861433  1
  Co  Co18  1  0.93354147  0.76677073  0.74861433  1
  Co  Co18  1  0.93354147  0.76677073  0.94861433  1
  Co  Co18  1  0.93354147  0.96677073  0.14861433  1
  Co  Co18  1  0.93354147  0.96677073  0.34861433  1
  Co  Co18  1  0.93354147  0.96677073  0.54861433  1
  Co  Co18  1  0.93354147  0.96677073  0.74861433  1
  Co  Co18  1  0.93354147  0.96677073  0.94861433  1
  Co  Co19  1  0.03322927  0.06645853  0.14861433  1
  Co  Co19  1  0.03322927  0.06645853  0.34861433  1
  Co  Co19  1  0.03322927  0.06645853  0.54861433  1
  Co  Co19  1  0.03322927  0.06645853  0.74861433  1
  Co  Co19  1  0.03322927  0.06645853  0.94861433  1
  Co  Co19  1  0.03322927  0.26645853  0.14861433  1
  Co  Co19  1  0.03322927  0.26645853  0.34861433  1
  Co  Co19  1  0.03322927  0.26645853  0.54861433  1
  Co  Co19  1  0.03322927  0.26645853  0.74861433  1
  Co  Co19  1  0.03322927  0.26645853  0.94861433  1
  Co  Co19  1  0.03322927  0.46645853  0.14861433  1
  Co  Co19  1  0.03322927  0.46645853  0.34861433  1
  Co  Co19  1  0.03322927  0.46645853  0.54861433  1
  Co  Co19  1  0.03322927  0.46645853  0.74861433  1
  Co  Co19  1  0.03322927  0.46645853  0.94861433  1
  Co  Co19  1  0.03322927  0.66645853  0.14861433  1
  Co  Co19  1  0.03322927  0.66645853  0.34861433  1
  Co  Co19  1  0.03322927  0.66645853  0.54861433  1
  Co  Co19  1  0.03322927  0.66645853  0.74861433  1
  Co  Co19  1  0.03322927  0.66645853  0.94861433  1
  Co  Co19  1  0.03322927  0.86645853  0.14861433  1
  Co  Co19  1  0.03322927  0.86645853  0.34861433  1
  Co  Co19  1  0.03322927  0.86645853  0.54861433  1
  Co  Co19  1  0.03322927  0.86645853  0.74861433  1
  Co  Co19  1  0.03322927  0.86645853  0.94861433  1
  Co  Co19  1  0.23322927  0.06645853  0.14861433  1
  Co  Co19  1  0.23322927  0.06645853  0.34861433  1
  Co  Co19  1  0.23322927  0.06645853  0.54861433  1
  Co  Co19  1  0.23322927  0.06645853  0.74861433  1
  Co  Co19  1  0.23322927  0.06645853  0.94861433  1
  Co  Co19  1  0.23322927  0.26645853  0.14861433  1
  Co  Co19  1  0.23322927  0.26645853  0.34861433  1
  Co  Co19  1  0.23322927  0.26645853  0.54861433  1
  Co  Co19  1  0.23322927  0.26645853  0.74861433  1
  Co  Co19  1  0.23322927  0.26645853  0.94861433  1
  Co  Co19  1  0.23322927  0.46645853  0.14861433  1
  Co  Co19  1  0.23322927  0.46645853  0.34861433  1
  Co  Co19  1  0.23322927  0.46645853  0.54861433  1
  Co  Co19  1  0.23322927  0.46645853  0.74861433  1
  Co  Co19  1  0.23322927  0.46645853  0.94861433  1
  Co  Co19  1  0.23322927  0.66645853  0.14861433  1
  Co  Co19  1  0.23322927  0.66645853  0.34861433  1
  Co  Co19  1  0.23322927  0.66645853  0.54861433  1
  Co  Co19  1  0.23322927  0.66645853  0.74861433  1
  Co  Co19  1  0.23322927  0.66645853  0.94861433  1
  Co  Co19  1  0.23322927  0.86645853  0.14861433  1
  Co  Co19  1  0.23322927  0.86645853  0.34861433  1
  Co  Co19  1  0.23322927  0.86645853  0.54861433  1
  Co  Co19  1  0.23322927  0.86645853  0.74861433  1
  Co  Co19  1  0.23322927  0.86645853  0.94861433  1
  Co  Co19  1  0.43322927  0.06645853  0.14861433  1
  Co  Co19  1  0.43322927  0.06645853  0.34861433  1
  Co  Co19  1  0.43322927  0.06645853  0.54861433  1
  Co  Co19  1  0.43322927  0.06645853  0.74861433  1
  Co  Co19  1  0.43322927  0.06645853  0.94861433  1
  Co  Co19  1  0.43322927  0.26645853  0.14861433  1
  Co  Co19  1  0.43322927  0.26645853  0.34861433  1
  Co  Co19  1  0.43322927  0.26645853  0.54861433  1
  Co  Co19  1  0.43322927  0.26645853  0.74861433  1
  Co  Co19  1  0.43322927  0.26645853  0.94861433  1
  Co  Co19  1  0.43322927  0.46645853  0.14861433  1
  Co  Co19  1  0.43322927  0.46645853  0.34861433  1
  Co  Co19  1  0.43322927  0.46645853  0.54861433  1
  Co  Co19  1  0.43322927  0.46645853  0.74861433  1
  Co  Co19  1  0.43322927  0.46645853  0.94861433  1
  Co  Co19  1  0.43322927  0.66645853  0.14861433  1
  Co  Co19  1  0.43322927  0.66645853  0.34861433  1
  Co  Co19  1  0.43322927  0.66645853  0.54861433  1
  Co  Co19  1  0.43322927  0.66645853  0.74861433  1
  Co  Co19  1  0.43322927  0.66645853  0.94861433  1
  Co  Co19  1  0.43322927  0.86645853  0.14861433  1
  Co  Co19  1  0.43322927  0.86645853  0.34861433  1
  Co  Co19  1  0.43322927  0.86645853  0.54861433  1
  Co  Co19  1  0.43322927  0.86645853  0.74861433  1
  Co  Co19  1  0.43322927  0.86645853  0.94861433  1
  Co  Co19  1  0.63322927  0.06645853  0.14861433  1
  Co  Co19  1  0.63322927  0.06645853  0.34861433  1
  Co  Co19  1  0.63322927  0.06645853  0.54861433  1
  Co  Co19  1  0.63322927  0.06645853  0.74861433  1
  Co  Co19  1  0.63322927  0.06645853  0.94861433  1
  Co  Co19  1  0.63322927  0.26645853  0.14861433  1
  Co  Co19  1  0.63322927  0.26645853  0.34861433  1
  Co  Co19  1  0.63322927  0.26645853  0.54861433  1
  Co  Co19  1  0.63322927  0.26645853  0.74861433  1
  Co  Co19  1  0.63322927  0.26645853  0.94861433  1
  Co  Co19  1  0.63322927  0.46645853  0.14861433  1
  Co  Co19  1  0.63322927  0.46645853  0.34861433  1
  Co  Co19  1  0.63322927  0.46645853  0.54861433  1
  Co  Co19  1  0.63322927  0.46645853  0.74861433  1
  Co  Co19  1  0.63322927  0.46645853  0.94861433  1
  Co  Co19  1  0.63322927  0.66645853  0.14861433  1
  Co  Co19  1  0.63322927  0.66645853  0.34861433  1
  Co  Co19  1  0.63322927  0.66645853  0.54861433  1
  Co  Co19  1  0.63322927  0.66645853  0.74861433  1
  Co  Co19  1  0.63322927  0.66645853  0.94861433  1
  Co  Co19  1  0.63322927  0.86645853  0.14861433  1
  Co  Co19  1  0.63322927  0.86645853  0.34861433  1
  Co  Co19  1  0.63322927  0.86645853  0.54861433  1
  Co  Co19  1  0.63322927  0.86645853  0.74861433  1
  Co  Co19  1  0.63322927  0.86645853  0.94861433  1
  Co  Co19  1  0.83322927  0.06645853  0.14861433  1
  Co  Co19  1  0.83322927  0.06645853  0.34861433  1
  Co  Co19  1  0.83322927  0.06645853  0.54861433  1
  Co  Co19  1  0.83322927  0.06645853  0.74861433  1
  Co  Co19  1  0.83322927  0.06645853  0.94861433  1
  Co  Co19  1  0.83322927  0.26645853  0.14861433  1
  Co  Co19  1  0.83322927  0.26645853  0.34861433  1
  Co  Co19  1  0.83322927  0.26645853  0.54861433  1
  Co  Co19  1  0.83322927  0.26645853  0.74861433  1
  Co  Co19  1  0.83322927  0.26645853  0.94861433  1
  Co  Co19  1  0.83322927  0.46645853  0.14861433  1
  Co  Co19  1  0.83322927  0.46645853  0.34861433  1
  Co  Co19  1  0.83322927  0.46645853  0.54861433  1
  Co  Co19  1  0.83322927  0.46645853  0.74861433  1
  Co  Co19  1  0.83322927  0.46645853  0.94861433  1
  Co  Co19  1  0.83322927  0.66645853  0.14861433  1
  Co  Co19  1  0.83322927  0.66645853  0.34861433  1
  Co  Co19  1  0.83322927  0.66645853  0.54861433  1
  Co  Co19  1  0.83322927  0.66645853  0.74861433  1
  Co  Co19  1  0.83322927  0.66645853  0.94861433  1
  Co  Co19  1  0.83322927  0.86645853  0.14861433  1
  Co  Co19  1  0.83322927  0.86645853  0.34861433  1
  Co  Co19  1  0.83322927  0.86645853  0.54861433  1
  Co  Co19  1  0.83322927  0.86645853  0.74861433  1
  Co  Co19  1  0.83322927  0.86645853  0.94861433  1
  Co  Co20  1  0.03322927  0.16677073  0.14861433  1
  Co  Co20  1  0.03322927  0.16677073  0.34861433  1
  Co  Co20  1  0.03322927  0.16677073  0.54861433  1
  Co  Co20  1  0.03322927  0.16677073  0.74861433  1
  Co  Co20  1  0.03322927  0.16677073  0.94861433  1
  Co  Co20  1  0.03322927  0.36677073  0.14861433  1
  Co  Co20  1  0.03322927  0.36677073  0.34861433  1
  Co  Co20  1  0.03322927  0.36677073  0.54861433  1
  Co  Co20  1  0.03322927  0.36677073  0.74861433  1
  Co  Co20  1  0.03322927  0.36677073  0.94861433  1
  Co  Co20  1  0.03322927  0.56677073  0.14861433  1
  Co  Co20  1  0.03322927  0.56677073  0.34861433  1
  Co  Co20  1  0.03322927  0.56677073  0.54861433  1
  Co  Co20  1  0.03322927  0.56677073  0.74861433  1
  Co  Co20  1  0.03322927  0.56677073  0.94861433  1
  Co  Co20  1  0.03322927  0.76677073  0.14861433  1
  Co  Co20  1  0.03322927  0.76677073  0.34861433  1
  Co  Co20  1  0.03322927  0.76677073  0.54861433  1
  Co  Co20  1  0.03322927  0.76677073  0.74861433  1
  Co  Co20  1  0.03322927  0.76677073  0.94861433  1
  Co  Co20  1  0.03322927  0.96677073  0.14861433  1
  Co  Co20  1  0.03322927  0.96677073  0.34861433  1
  Co  Co20  1  0.03322927  0.96677073  0.54861433  1
  Co  Co20  1  0.03322927  0.96677073  0.74861433  1
  Co  Co20  1  0.03322927  0.96677073  0.94861433  1
  Co  Co20  1  0.23322927  0.16677073  0.14861433  1
  Co  Co20  1  0.23322927  0.16677073  0.34861433  1
  Co  Co20  1  0.23322927  0.16677073  0.54861433  1
  Co  Co20  1  0.23322927  0.16677073  0.74861433  1
  Co  Co20  1  0.23322927  0.16677073  0.94861433  1
  Co  Co20  1  0.23322927  0.36677073  0.14861433  1
  Co  Co20  1  0.23322927  0.36677073  0.34861433  1
  Co  Co20  1  0.23322927  0.36677073  0.54861433  1
  Co  Co20  1  0.23322927  0.36677073  0.74861433  1
  Co  Co20  1  0.23322927  0.36677073  0.94861433  1
  Co  Co20  1  0.23322927  0.56677073  0.14861433  1
  Co  Co20  1  0.23322927  0.56677073  0.34861433  1
  Co  Co20  1  0.23322927  0.56677073  0.54861433  1
  Co  Co20  1  0.23322927  0.56677073  0.74861433  1
  Co  Co20  1  0.23322927  0.56677073  0.94861433  1
  Co  Co20  1  0.23322927  0.76677073  0.14861433  1
  Co  Co20  1  0.23322927  0.76677073  0.34861433  1
  Co  Co20  1  0.23322927  0.76677073  0.54861433  1
  Co  Co20  1  0.23322927  0.76677073  0.74861433  1
  Co  Co20  1  0.23322927  0.76677073  0.94861433  1
  Co  Co20  1  0.23322927  0.96677073  0.14861433  1
  Co  Co20  1  0.23322927  0.96677073  0.34861433  1
  Co  Co20  1  0.23322927  0.96677073  0.54861433  1
  Co  Co20  1  0.23322927  0.96677073  0.74861433  1
  Co  Co20  1  0.23322927  0.96677073  0.94861433  1
  Co  Co20  1  0.43322927  0.16677073  0.14861433  1
  Co  Co20  1  0.43322927  0.16677073  0.34861433  1
  Co  Co20  1  0.43322927  0.16677073  0.54861433  1
  Co  Co20  1  0.43322927  0.16677073  0.74861433  1
  Co  Co20  1  0.43322927  0.16677073  0.94861433  1
  Co  Co20  1  0.43322927  0.36677073  0.14861433  1
  Co  Co20  1  0.43322927  0.36677073  0.34861433  1
  Co  Co20  1  0.43322927  0.36677073  0.54861433  1
  Co  Co20  1  0.43322927  0.36677073  0.74861433  1
  Co  Co20  1  0.43322927  0.36677073  0.94861433  1
  Co  Co20  1  0.43322927  0.56677073  0.14861433  1
  Co  Co20  1  0.43322927  0.56677073  0.34861433  1
  Co  Co20  1  0.43322927  0.56677073  0.54861433  1
  Co  Co20  1  0.43322927  0.56677073  0.74861433  1
  Co  Co20  1  0.43322927  0.56677073  0.94861433  1
  Co  Co20  1  0.43322927  0.76677073  0.14861433  1
  Co  Co20  1  0.43322927  0.76677073  0.34861433  1
  Co  Co20  1  0.43322927  0.76677073  0.54861433  1
  Co  Co20  1  0.43322927  0.76677073  0.74861433  1
  Co  Co20  1  0.43322927  0.76677073  0.94861433  1
  Co  Co20  1  0.43322927  0.96677073  0.14861433  1
  Co  Co20  1  0.43322927  0.96677073  0.34861433  1
  Co  Co20  1  0.43322927  0.96677073  0.54861433  1
  Co  Co20  1  0.43322927  0.96677073  0.74861433  1
  Co  Co20  1  0.43322927  0.96677073  0.94861433  1
  Co  Co20  1  0.63322927  0.16677073  0.14861433  1
  Co  Co20  1  0.63322927  0.16677073  0.34861433  1
  Co  Co20  1  0.63322927  0.16677073  0.54861433  1
  Co  Co20  1  0.63322927  0.16677073  0.74861433  1
  Co  Co20  1  0.63322927  0.16677073  0.94861433  1
  Co  Co20  1  0.63322927  0.36677073  0.14861433  1
  Co  Co20  1  0.63322927  0.36677073  0.34861433  1
  Co  Co20  1  0.63322927  0.36677073  0.54861433  1
  Co  Co20  1  0.63322927  0.36677073  0.74861433  1
  Co  Co20  1  0.63322927  0.36677073  0.94861433  1
  Co  Co20  1  0.63322927  0.56677073  0.14861433  1
  Co  Co20  1  0.63322927  0.56677073  0.34861433  1
  Co  Co20  1  0.63322927  0.56677073  0.54861433  1
  Co  Co20  1  0.63322927  0.56677073  0.74861433  1
  Co  Co20  1  0.63322927  0.56677073  0.94861433  1
  Co  Co20  1  0.63322927  0.76677073  0.14861433  1
  Co  Co20  1  0.63322927  0.76677073  0.34861433  1
  Co  Co20  1  0.63322927  0.76677073  0.54861433  1
  Co  Co20  1  0.63322927  0.76677073  0.74861433  1
  Co  Co20  1  0.63322927  0.76677073  0.94861433  1
  Co  Co20  1  0.63322927  0.96677073  0.14861433  1
  Co  Co20  1  0.63322927  0.96677073  0.34861433  1
  Co  Co20  1  0.63322927  0.96677073  0.54861433  1
  Co  Co20  1  0.63322927  0.96677073  0.74861433  1
  Co  Co20  1  0.63322927  0.96677073  0.94861433  1
  Co  Co20  1  0.83322927  0.16677073  0.14861433  1
  Co  Co20  1  0.83322927  0.16677073  0.34861433  1
  Co  Co20  1  0.83322927  0.16677073  0.54861433  1
  Co  Co20  1  0.83322927  0.16677073  0.74861433  1
  Co  Co20  1  0.83322927  0.16677073  0.94861433  1
  Co  Co20  1  0.83322927  0.36677073  0.14861433  1
  Co  Co20  1  0.83322927  0.36677073  0.34861433  1
  Co  Co20  1  0.83322927  0.36677073  0.54861433  1
  Co  Co20  1  0.83322927  0.36677073  0.74861433  1
  Co  Co20  1  0.83322927  0.36677073  0.94861433  1
  Co  Co20  1  0.83322927  0.56677073  0.14861433  1
  Co  Co20  1  0.83322927  0.56677073  0.34861433  1
  Co  Co20  1  0.83322927  0.56677073  0.54861433  1
  Co  Co20  1  0.83322927  0.56677073  0.74861433  1
  Co  Co20  1  0.83322927  0.56677073  0.94861433  1
  Co  Co20  1  0.83322927  0.76677073  0.14861433  1
  Co  Co20  1  0.83322927  0.76677073  0.34861433  1
  Co  Co20  1  0.83322927  0.76677073  0.54861433  1
  Co  Co20  1  0.83322927  0.76677073  0.74861433  1
  Co  Co20  1  0.83322927  0.76677073  0.94861433  1
  Co  Co20  1  0.83322927  0.96677073  0.14861433  1
  Co  Co20  1  0.83322927  0.96677073  0.34861433  1
  Co  Co20  1  0.83322927  0.96677073  0.54861433  1
  Co  Co20  1  0.83322927  0.96677073  0.74861433  1
  Co  Co20  1  0.83322927  0.96677073  0.94861433  1
  Ta  Ta21  1  0.00000000  0.00000000  0.03322000  1
  Ta  Ta21  1  0.00000000  0.00000000  0.23322000  1
  Ta  Ta21  1  0.00000000  0.00000000  0.43322000  1
  Ta  Ta21  1  0.00000000  0.00000000  0.63322000  1
  Ta  Ta21  1  0.00000000  0.00000000  0.83322000  1
  Ta  Ta21  1  0.00000000  0.20000000  0.03322000  1
  Ta  Ta21  1  0.00000000  0.20000000  0.23322000  1
  Ta  Ta21  1  0.00000000  0.20000000  0.43322000  1
  Ta  Ta21  1  0.00000000  0.20000000  0.63322000  1
  Ta  Ta21  1  0.00000000  0.20000000  0.83322000  1
  Ta  Ta21  1  0.00000000  0.40000000  0.03322000  1
  Ta  Ta21  1  0.00000000  0.40000000  0.23322000  1
  Ta  Ta21  1  0.00000000  0.40000000  0.43322000  1
  Ta  Ta21  1  0.00000000  0.40000000  0.63322000  1
  Ta  Ta21  1  0.00000000  0.40000000  0.83322000  1
  Ta  Ta21  1  0.00000000  0.60000000  0.03322000  1
  Ta  Ta21  1  0.00000000  0.60000000  0.23322000  1
  Ta  Ta21  1  0.00000000  0.60000000  0.43322000  1
  Ta  Ta21  1  0.00000000  0.60000000  0.63322000  1
  Ta  Ta21  1  0.00000000  0.60000000  0.83322000  1
  Ta  Ta21  1  0.00000000  0.80000000  0.03322000  1
  Ta  Ta21  1  0.00000000  0.80000000  0.23322000  1
  Ta  Ta21  1  0.00000000  0.80000000  0.43322000  1
  Ta  Ta21  1  0.00000000  0.80000000  0.63322000  1
  Ta  Ta21  1  0.00000000  0.80000000  0.83322000  1
  Ta  Ta21  1  0.20000000  0.00000000  0.03322000  1
  Ta  Ta21  1  0.20000000  0.00000000  0.23322000  1
  Ta  Ta21  1  0.20000000  0.00000000  0.43322000  1
  Ta  Ta21  1  0.20000000  0.00000000  0.63322000  1
  Ta  Ta21  1  0.20000000  0.00000000  0.83322000  1
  Ta  Ta21  1  0.20000000  0.20000000  0.03322000  1
  Ta  Ta21  1  0.20000000  0.20000000  0.23322000  1
  Ta  Ta21  1  0.20000000  0.20000000  0.43322000  1
  Ta  Ta21  1  0.20000000  0.20000000  0.63322000  1
  Ta  Ta21  1  0.20000000  0.20000000  0.83322000  1
  Ta  Ta21  1  0.20000000  0.40000000  0.03322000  1
  Ta  Ta21  1  0.20000000  0.40000000  0.23322000  1
  Ta  Ta21  1  0.20000000  0.40000000  0.43322000  1
  Ta  Ta21  1  0.20000000  0.40000000  0.63322000  1
  Ta  Ta21  1  0.20000000  0.40000000  0.83322000  1
  Ta  Ta21  1  0.20000000  0.60000000  0.03322000  1
  Ta  Ta21  1  0.20000000  0.60000000  0.23322000  1
  Ta  Ta21  1  0.20000000  0.60000000  0.43322000  1
  Ta  Ta21  1  0.20000000  0.60000000  0.63322000  1
  Ta  Ta21  1  0.20000000  0.60000000  0.83322000  1
  Ta  Ta21  1  0.20000000  0.80000000  0.03322000  1
  Ta  Ta21  1  0.20000000  0.80000000  0.23322000  1
  Ta  Ta21  1  0.20000000  0.80000000  0.43322000  1
  Ta  Ta21  1  0.20000000  0.80000000  0.63322000  1
  Ta  Ta21  1  0.20000000  0.80000000  0.83322000  1
  Ta  Ta21  1  0.40000000  0.00000000  0.03322000  1
  Ta  Ta21  1  0.40000000  0.00000000  0.23322000  1
  Ta  Ta21  1  0.40000000  0.00000000  0.43322000  1
  Ta  Ta21  1  0.40000000  0.00000000  0.63322000  1
  Ta  Ta21  1  0.40000000  0.00000000  0.83322000  1
  Ta  Ta21  1  0.40000000  0.20000000  0.03322000  1
  Ta  Ta21  1  0.40000000  0.20000000  0.23322000  1
  Ta  Ta21  1  0.40000000  0.20000000  0.43322000  1
  Ta  Ta21  1  0.40000000  0.20000000  0.63322000  1
  Ta  Ta21  1  0.40000000  0.20000000  0.83322000  1
  Ta  Ta21  1  0.40000000  0.40000000  0.03322000  1
  Ta  Ta21  1  0.40000000  0.40000000  0.23322000  1
  Ta  Ta21  1  0.40000000  0.40000000  0.43322000  1
  Ta  Ta21  1  0.40000000  0.40000000  0.63322000  1
  Ta  Ta21  1  0.40000000  0.40000000  0.83322000  1
  Ta  Ta21  1  0.40000000  0.60000000  0.03322000  1
  Ta  Ta21  1  0.40000000  0.60000000  0.23322000  1
  Ta  Ta21  1  0.40000000  0.60000000  0.43322000  1
  Ta  Ta21  1  0.40000000  0.60000000  0.63322000  1
  Ta  Ta21  1  0.40000000  0.60000000  0.83322000  1
  Ta  Ta21  1  0.40000000  0.80000000  0.03322000  1
  Ta  Ta21  1  0.40000000  0.80000000  0.23322000  1
  Ta  Ta21  1  0.40000000  0.80000000  0.43322000  1
  Ta  Ta21  1  0.40000000  0.80000000  0.63322000  1
  Ta  Ta21  1  0.40000000  0.80000000  0.83322000  1
  Ta  Ta21  1  0.60000000  0.00000000  0.03322000  1
  Ta  Ta21  1  0.60000000  0.00000000  0.23322000  1
  Ta  Ta21  1  0.60000000  0.00000000  0.43322000  1
  Ta  Ta21  1  0.60000000  0.00000000  0.63322000  1
  Ta  Ta21  1  0.60000000  0.00000000  0.83322000  1
  Ta  Ta21  1  0.60000000  0.20000000  0.03322000  1
  Ta  Ta21  1  0.60000000  0.20000000  0.23322000  1
  Ta  Ta21  1  0.60000000  0.20000000  0.43322000  1
  Ta  Ta21  1  0.60000000  0.20000000  0.63322000  1
  Ta  Ta21  1  0.60000000  0.20000000  0.83322000  1
  Ta  Ta21  1  0.60000000  0.40000000  0.03322000  1
  Ta  Ta21  1  0.60000000  0.40000000  0.23322000  1
  Ta  Ta21  1  0.60000000  0.40000000  0.43322000  1
  Ta  Ta21  1  0.60000000  0.40000000  0.63322000  1
  Ta  Ta21  1  0.60000000  0.40000000  0.83322000  1
  Ta  Ta21  1  0.60000000  0.60000000  0.03322000  1
  Ta  Ta21  1  0.60000000  0.60000000  0.23322000  1
  Ta  Ta21  1  0.60000000  0.60000000  0.43322000  1
  Ta  Ta21  1  0.60000000  0.60000000  0.63322000  1
  Ta  Ta21  1  0.60000000  0.60000000  0.83322000  1
  Ta  Ta21  1  0.60000000  0.80000000  0.03322000  1
  Ta  Ta21  1  0.60000000  0.80000000  0.23322000  1
  Ta  Ta21  1  0.60000000  0.80000000  0.43322000  1
  Ta  Ta21  1  0.60000000  0.80000000  0.63322000  1
  Ta  Ta21  1  0.60000000  0.80000000  0.83322000  1
  Ta  Ta21  1  0.80000000  0.00000000  0.03322000  1
  Ta  Ta21  1  0.80000000  0.00000000  0.23322000  1
  Ta  Ta21  1  0.80000000  0.00000000  0.43322000  1
  Ta  Ta21  1  0.80000000  0.00000000  0.63322000  1
  Ta  Ta21  1  0.80000000  0.00000000  0.83322000  1
  Ta  Ta21  1  0.80000000  0.20000000  0.03322000  1
  Ta  Ta21  1  0.80000000  0.20000000  0.23322000  1
  Ta  Ta21  1  0.80000000  0.20000000  0.43322000  1
  Ta  Ta21  1  0.80000000  0.20000000  0.63322000  1
  Ta  Ta21  1  0.80000000  0.20000000  0.83322000  1
  Ta  Ta21  1  0.80000000  0.40000000  0.03322000  1
  Ta  Ta21  1  0.80000000  0.40000000  0.23322000  1
  Ta  Ta21  1  0.80000000  0.40000000  0.43322000  1
  Ta  Ta21  1  0.80000000  0.40000000  0.63322000  1
  Ta  Ta21  1  0.80000000  0.40000000  0.83322000  1
  Ta  Ta21  1  0.80000000  0.60000000  0.03322000  1
  Ta  Ta21  1  0.80000000  0.60000000  0.23322000  1
  Ta  Ta21  1  0.80000000  0.60000000  0.43322000  1
  Ta  Ta21  1  0.80000000  0.60000000  0.63322000  1
  Ta  Ta21  1  0.80000000  0.60000000  0.83322000  1
  Ta  Ta21  1  0.80000000  0.80000000  0.03322000  1
  Ta  Ta21  1  0.80000000  0.80000000  0.23322000  1
  Ta  Ta21  1  0.80000000  0.80000000  0.43322000  1
  Ta  Ta21  1  0.80000000  0.80000000  0.63322000  1
  Ta  Ta21  1  0.80000000  0.80000000  0.83322000  1
  Ta  Ta22  1  0.13333333  0.06666667  0.03344667  1
  Ta  Ta22  1  0.13333333  0.06666667  0.23344667  1
  Ta  Ta22  1  0.13333333  0.06666667  0.43344667  1
  Ta  Ta22  1  0.13333333  0.06666667  0.63344667  1
  Ta  Ta22  1  0.13333333  0.06666667  0.83344667  1
  Ta  Ta22  1  0.13333333  0.26666667  0.03344667  1
  Ta  Ta22  1  0.13333333  0.26666667  0.23344667  1
  Ta  Ta22  1  0.13333333  0.26666667  0.43344667  1
  Ta  Ta22  1  0.13333333  0.26666667  0.63344667  1
  Ta  Ta22  1  0.13333333  0.26666667  0.83344667  1
  Ta  Ta22  1  0.13333333  0.46666667  0.03344667  1
  Ta  Ta22  1  0.13333333  0.46666667  0.23344667  1
  Ta  Ta22  1  0.13333333  0.46666667  0.43344667  1
  Ta  Ta22  1  0.13333333  0.46666667  0.63344667  1
  Ta  Ta22  1  0.13333333  0.46666667  0.83344667  1
  Ta  Ta22  1  0.13333333  0.66666667  0.03344667  1
  Ta  Ta22  1  0.13333333  0.66666667  0.23344667  1
  Ta  Ta22  1  0.13333333  0.66666667  0.43344667  1
  Ta  Ta22  1  0.13333333  0.66666667  0.63344667  1
  Ta  Ta22  1  0.13333333  0.66666667  0.83344667  1
  Ta  Ta22  1  0.13333333  0.86666667  0.03344667  1
  Ta  Ta22  1  0.13333333  0.86666667  0.23344667  1
  Ta  Ta22  1  0.13333333  0.86666667  0.43344667  1
  Ta  Ta22  1  0.13333333  0.86666667  0.63344667  1
  Ta  Ta22  1  0.13333333  0.86666667  0.83344667  1
  Ta  Ta22  1  0.33333333  0.06666667  0.03344667  1
  Ta  Ta22  1  0.33333333  0.06666667  0.23344667  1
  Ta  Ta22  1  0.33333333  0.06666667  0.43344667  1
  Ta  Ta22  1  0.33333333  0.06666667  0.63344667  1
  Ta  Ta22  1  0.33333333  0.06666667  0.83344667  1
  Ta  Ta22  1  0.33333333  0.26666667  0.03344667  1
  Ta  Ta22  1  0.33333333  0.26666667  0.23344667  1
  Ta  Ta22  1  0.33333333  0.26666667  0.43344667  1
  Ta  Ta22  1  0.33333333  0.26666667  0.63344667  1
  Ta  Ta22  1  0.33333333  0.26666667  0.83344667  1
  Ta  Ta22  1  0.33333333  0.46666667  0.03344667  1
  Ta  Ta22  1  0.33333333  0.46666667  0.23344667  1
  Ta  Ta22  1  0.33333333  0.46666667  0.43344667  1
  Ta  Ta22  1  0.33333333  0.46666667  0.63344667  1
  Ta  Ta22  1  0.33333333  0.46666667  0.83344667  1
  Ta  Ta22  1  0.33333333  0.66666667  0.03344667  1
  Ta  Ta22  1  0.33333333  0.66666667  0.23344667  1
  Ta  Ta22  1  0.33333333  0.66666667  0.43344667  1
  Ta  Ta22  1  0.33333333  0.66666667  0.63344667  1
  Ta  Ta22  1  0.33333333  0.66666667  0.83344667  1
  Ta  Ta22  1  0.33333333  0.86666667  0.03344667  1
  Ta  Ta22  1  0.33333333  0.86666667  0.23344667  1
  Ta  Ta22  1  0.33333333  0.86666667  0.43344667  1
  Ta  Ta22  1  0.33333333  0.86666667  0.63344667  1
  Ta  Ta22  1  0.33333333  0.86666667  0.83344667  1
  Ta  Ta22  1  0.53333333  0.06666667  0.03344667  1
  Ta  Ta22  1  0.53333333  0.06666667  0.23344667  1
  Ta  Ta22  1  0.53333333  0.06666667  0.43344667  1
  Ta  Ta22  1  0.53333333  0.06666667  0.63344667  1
  Ta  Ta22  1  0.53333333  0.06666667  0.83344667  1
  Ta  Ta22  1  0.53333333  0.26666667  0.03344667  1
  Ta  Ta22  1  0.53333333  0.26666667  0.23344667  1
  Ta  Ta22  1  0.53333333  0.26666667  0.43344667  1
  Ta  Ta22  1  0.53333333  0.26666667  0.63344667  1
  Ta  Ta22  1  0.53333333  0.26666667  0.83344667  1
  Ta  Ta22  1  0.53333333  0.46666667  0.03344667  1
  Ta  Ta22  1  0.53333333  0.46666667  0.23344667  1
  Ta  Ta22  1  0.53333333  0.46666667  0.43344667  1
  Ta  Ta22  1  0.53333333  0.46666667  0.63344667  1
  Ta  Ta22  1  0.53333333  0.46666667  0.83344667  1
  Ta  Ta22  1  0.53333333  0.66666667  0.03344667  1
  Ta  Ta22  1  0.53333333  0.66666667  0.23344667  1
  Ta  Ta22  1  0.53333333  0.66666667  0.43344667  1
  Ta  Ta22  1  0.53333333  0.66666667  0.63344667  1
  Ta  Ta22  1  0.53333333  0.66666667  0.83344667  1
  Ta  Ta22  1  0.53333333  0.86666667  0.03344667  1
  Ta  Ta22  1  0.53333333  0.86666667  0.23344667  1
  Ta  Ta22  1  0.53333333  0.86666667  0.43344667  1
  Ta  Ta22  1  0.53333333  0.86666667  0.63344667  1
  Ta  Ta22  1  0.53333333  0.86666667  0.83344667  1
  Ta  Ta22  1  0.73333333  0.06666667  0.03344667  1
  Ta  Ta22  1  0.73333333  0.06666667  0.23344667  1
  Ta  Ta22  1  0.73333333  0.06666667  0.43344667  1
  Ta  Ta22  1  0.73333333  0.06666667  0.63344667  1
  Ta  Ta22  1  0.73333333  0.06666667  0.83344667  1
  Ta  Ta22  1  0.73333333  0.26666667  0.03344667  1
  Ta  Ta22  1  0.73333333  0.26666667  0.23344667  1
  Ta  Ta22  1  0.73333333  0.26666667  0.43344667  1
  Ta  Ta22  1  0.73333333  0.26666667  0.63344667  1
  Ta  Ta22  1  0.73333333  0.26666667  0.83344667  1
  Ta  Ta22  1  0.73333333  0.46666667  0.03344667  1
  Ta  Ta22  1  0.73333333  0.46666667  0.23344667  1
  Ta  Ta22  1  0.73333333  0.46666667  0.43344667  1
  Ta  Ta22  1  0.73333333  0.46666667  0.63344667  1
  Ta  Ta22  1  0.73333333  0.46666667  0.83344667  1
  Ta  Ta22  1  0.73333333  0.66666667  0.03344667  1
  Ta  Ta22  1  0.73333333  0.66666667  0.23344667  1
  Ta  Ta22  1  0.73333333  0.66666667  0.43344667  1
  Ta  Ta22  1  0.73333333  0.66666667  0.63344667  1
  Ta  Ta22  1  0.73333333  0.66666667  0.83344667  1
  Ta  Ta22  1  0.73333333  0.86666667  0.03344667  1
  Ta  Ta22  1  0.73333333  0.86666667  0.23344667  1
  Ta  Ta22  1  0.73333333  0.86666667  0.43344667  1
  Ta  Ta22  1  0.73333333  0.86666667  0.63344667  1
  Ta  Ta22  1  0.73333333  0.86666667  0.83344667  1
  Ta  Ta22  1  0.93333333  0.06666667  0.03344667  1
  Ta  Ta22  1  0.93333333  0.06666667  0.23344667  1
  Ta  Ta22  1  0.93333333  0.06666667  0.43344667  1
  Ta  Ta22  1  0.93333333  0.06666667  0.63344667  1
  Ta  Ta22  1  0.93333333  0.06666667  0.83344667  1
  Ta  Ta22  1  0.93333333  0.26666667  0.03344667  1
  Ta  Ta22  1  0.93333333  0.26666667  0.23344667  1
  Ta  Ta22  1  0.93333333  0.26666667  0.43344667  1
  Ta  Ta22  1  0.93333333  0.26666667  0.63344667  1
  Ta  Ta22  1  0.93333333  0.26666667  0.83344667  1
  Ta  Ta22  1  0.93333333  0.46666667  0.03344667  1
  Ta  Ta22  1  0.93333333  0.46666667  0.23344667  1
  Ta  Ta22  1  0.93333333  0.46666667  0.43344667  1
  Ta  Ta22  1  0.93333333  0.46666667  0.63344667  1
  Ta  Ta22  1  0.93333333  0.46666667  0.83344667  1
  Ta  Ta22  1  0.93333333  0.66666667  0.03344667  1
  Ta  Ta22  1  0.93333333  0.66666667  0.23344667  1
  Ta  Ta22  1  0.93333333  0.66666667  0.43344667  1
  Ta  Ta22  1  0.93333333  0.66666667  0.63344667  1
  Ta  Ta22  1  0.93333333  0.66666667  0.83344667  1
  Ta  Ta22  1  0.93333333  0.86666667  0.03344667  1
  Ta  Ta22  1  0.93333333  0.86666667  0.23344667  1
  Ta  Ta22  1  0.93333333  0.86666667  0.43344667  1
  Ta  Ta22  1  0.93333333  0.86666667  0.63344667  1
  Ta  Ta22  1  0.93333333  0.86666667  0.83344667  1
  Ta  Ta23  1  0.06666667  0.13333333  0.00282073  1
  Ta  Ta23  1  0.06666667  0.13333333  0.20282073  1
  Ta  Ta23  1  0.06666667  0.13333333  0.40282073  1
  Ta  Ta23  1  0.06666667  0.13333333  0.60282073  1
  Ta  Ta23  1  0.06666667  0.13333333  0.80282073  1
  Ta  Ta23  1  0.06666667  0.33333333  0.00282073  1
  Ta  Ta23  1  0.06666667  0.33333333  0.20282073  1
  Ta  Ta23  1  0.06666667  0.33333333  0.40282073  1
  Ta  Ta23  1  0.06666667  0.33333333  0.60282073  1
  Ta  Ta23  1  0.06666667  0.33333333  0.80282073  1
  Ta  Ta23  1  0.06666667  0.53333333  0.00282073  1
  Ta  Ta23  1  0.06666667  0.53333333  0.20282073  1
  Ta  Ta23  1  0.06666667  0.53333333  0.40282073  1
  Ta  Ta23  1  0.06666667  0.53333333  0.60282073  1
  Ta  Ta23  1  0.06666667  0.53333333  0.80282073  1
  Ta  Ta23  1  0.06666667  0.73333333  0.00282073  1
  Ta  Ta23  1  0.06666667  0.73333333  0.20282073  1
  Ta  Ta23  1  0.06666667  0.73333333  0.40282073  1
  Ta  Ta23  1  0.06666667  0.73333333  0.60282073  1
  Ta  Ta23  1  0.06666667  0.73333333  0.80282073  1
  Ta  Ta23  1  0.06666667  0.93333333  0.00282073  1
  Ta  Ta23  1  0.06666667  0.93333333  0.20282073  1
  Ta  Ta23  1  0.06666667  0.93333333  0.40282073  1
  Ta  Ta23  1  0.06666667  0.93333333  0.60282073  1
  Ta  Ta23  1  0.06666667  0.93333333  0.80282073  1
  Ta  Ta23  1  0.26666667  0.13333333  0.00282073  1
  Ta  Ta23  1  0.26666667  0.13333333  0.20282073  1
  Ta  Ta23  1  0.26666667  0.13333333  0.40282073  1
  Ta  Ta23  1  0.26666667  0.13333333  0.60282073  1
  Ta  Ta23  1  0.26666667  0.13333333  0.80282073  1
  Ta  Ta23  1  0.26666667  0.33333333  0.00282073  1
  Ta  Ta23  1  0.26666667  0.33333333  0.20282073  1
  Ta  Ta23  1  0.26666667  0.33333333  0.40282073  1
  Ta  Ta23  1  0.26666667  0.33333333  0.60282073  1
  Ta  Ta23  1  0.26666667  0.33333333  0.80282073  1
  Ta  Ta23  1  0.26666667  0.53333333  0.00282073  1
  Ta  Ta23  1  0.26666667  0.53333333  0.20282073  1
  Ta  Ta23  1  0.26666667  0.53333333  0.40282073  1
  Ta  Ta23  1  0.26666667  0.53333333  0.60282073  1
  Ta  Ta23  1  0.26666667  0.53333333  0.80282073  1
  Ta  Ta23  1  0.26666667  0.73333333  0.00282073  1
  Ta  Ta23  1  0.26666667  0.73333333  0.20282073  1
  Ta  Ta23  1  0.26666667  0.73333333  0.40282073  1
  Ta  Ta23  1  0.26666667  0.73333333  0.60282073  1
  Ta  Ta23  1  0.26666667  0.73333333  0.80282073  1
  Ta  Ta23  1  0.26666667  0.93333333  0.00282073  1
  Ta  Ta23  1  0.26666667  0.93333333  0.20282073  1
  Ta  Ta23  1  0.26666667  0.93333333  0.40282073  1
  Ta  Ta23  1  0.26666667  0.93333333  0.60282073  1
  Ta  Ta23  1  0.26666667  0.93333333  0.80282073  1
  Ta  Ta23  1  0.46666667  0.13333333  0.00282073  1
  Ta  Ta23  1  0.46666667  0.13333333  0.20282073  1
  Ta  Ta23  1  0.46666667  0.13333333  0.40282073  1
  Ta  Ta23  1  0.46666667  0.13333333  0.60282073  1
  Ta  Ta23  1  0.46666667  0.13333333  0.80282073  1
  Ta  Ta23  1  0.46666667  0.33333333  0.00282073  1
  Ta  Ta23  1  0.46666667  0.33333333  0.20282073  1
  Ta  Ta23  1  0.46666667  0.33333333  0.40282073  1
  Ta  Ta23  1  0.46666667  0.33333333  0.60282073  1
  Ta  Ta23  1  0.46666667  0.33333333  0.80282073  1
  Ta  Ta23  1  0.46666667  0.53333333  0.00282073  1
  Ta  Ta23  1  0.46666667  0.53333333  0.20282073  1
  Ta  Ta23  1  0.46666667  0.53333333  0.40282073  1
  Ta  Ta23  1  0.46666667  0.53333333  0.60282073  1
  Ta  Ta23  1  0.46666667  0.53333333  0.80282073  1
  Ta  Ta23  1  0.46666667  0.73333333  0.00282073  1
  Ta  Ta23  1  0.46666667  0.73333333  0.20282073  1
  Ta  Ta23  1  0.46666667  0.73333333  0.40282073  1
  Ta  Ta23  1  0.46666667  0.73333333  0.60282073  1
  Ta  Ta23  1  0.46666667  0.73333333  0.80282073  1
  Ta  Ta23  1  0.46666667  0.93333333  0.00282073  1
  Ta  Ta23  1  0.46666667  0.93333333  0.20282073  1
  Ta  Ta23  1  0.46666667  0.93333333  0.40282073  1
  Ta  Ta23  1  0.46666667  0.93333333  0.60282073  1
  Ta  Ta23  1  0.46666667  0.93333333  0.80282073  1
  Ta  Ta23  1  0.66666667  0.13333333  0.00282073  1
  Ta  Ta23  1  0.66666667  0.13333333  0.20282073  1
  Ta  Ta23  1  0.66666667  0.13333333  0.40282073  1
  Ta  Ta23  1  0.66666667  0.13333333  0.60282073  1
  Ta  Ta23  1  0.66666667  0.13333333  0.80282073  1
  Ta  Ta23  1  0.66666667  0.33333333  0.00282073  1
  Ta  Ta23  1  0.66666667  0.33333333  0.20282073  1
  Ta  Ta23  1  0.66666667  0.33333333  0.40282073  1
  Ta  Ta23  1  0.66666667  0.33333333  0.60282073  1
  Ta  Ta23  1  0.66666667  0.33333333  0.80282073  1
  Ta  Ta23  1  0.66666667  0.53333333  0.00282073  1
  Ta  Ta23  1  0.66666667  0.53333333  0.20282073  1
  Ta  Ta23  1  0.66666667  0.53333333  0.40282073  1
  Ta  Ta23  1  0.66666667  0.53333333  0.60282073  1
  Ta  Ta23  1  0.66666667  0.53333333  0.80282073  1
  Ta  Ta23  1  0.66666667  0.73333333  0.00282073  1
  Ta  Ta23  1  0.66666667  0.73333333  0.20282073  1
  Ta  Ta23  1  0.66666667  0.73333333  0.40282073  1
  Ta  Ta23  1  0.66666667  0.73333333  0.60282073  1
  Ta  Ta23  1  0.66666667  0.73333333  0.80282073  1
  Ta  Ta23  1  0.66666667  0.93333333  0.00282073  1
  Ta  Ta23  1  0.66666667  0.93333333  0.20282073  1
  Ta  Ta23  1  0.66666667  0.93333333  0.40282073  1
  Ta  Ta23  1  0.66666667  0.93333333  0.60282073  1
  Ta  Ta23  1  0.66666667  0.93333333  0.80282073  1
  Ta  Ta23  1  0.86666667  0.13333333  0.00282073  1
  Ta  Ta23  1  0.86666667  0.13333333  0.20282073  1
  Ta  Ta23  1  0.86666667  0.13333333  0.40282073  1
  Ta  Ta23  1  0.86666667  0.13333333  0.60282073  1
  Ta  Ta23  1  0.86666667  0.13333333  0.80282073  1
  Ta  Ta23  1  0.86666667  0.33333333  0.00282073  1
  Ta  Ta23  1  0.86666667  0.33333333  0.20282073  1
  Ta  Ta23  1  0.86666667  0.33333333  0.40282073  1
  Ta  Ta23  1  0.86666667  0.33333333  0.60282073  1
  Ta  Ta23  1  0.86666667  0.33333333  0.80282073  1
  Ta  Ta23  1  0.86666667  0.53333333  0.00282073  1
  Ta  Ta23  1  0.86666667  0.53333333  0.20282073  1
  Ta  Ta23  1  0.86666667  0.53333333  0.40282073  1
  Ta  Ta23  1  0.86666667  0.53333333  0.60282073  1
  Ta  Ta23  1  0.86666667  0.53333333  0.80282073  1
  Ta  Ta23  1  0.86666667  0.73333333  0.00282073  1
  Ta  Ta23  1  0.86666667  0.73333333  0.20282073  1
  Ta  Ta23  1  0.86666667  0.73333333  0.40282073  1
  Ta  Ta23  1  0.86666667  0.73333333  0.60282073  1
  Ta  Ta23  1  0.86666667  0.73333333  0.80282073  1
  Ta  Ta23  1  0.86666667  0.93333333  0.00282073  1
  Ta  Ta23  1  0.86666667  0.93333333  0.20282073  1
  Ta  Ta23  1  0.86666667  0.93333333  0.40282073  1
  Ta  Ta23  1  0.86666667  0.93333333  0.60282073  1
  Ta  Ta23  1  0.86666667  0.93333333  0.80282073  1
  Ta  Ta24  1  0.06666667  0.13333333  0.06384593  1
  Ta  Ta24  1  0.06666667  0.13333333  0.26384593  1
  Ta  Ta24  1  0.06666667  0.13333333  0.46384593  1
  Ta  Ta24  1  0.06666667  0.13333333  0.66384593  1
  Ta  Ta24  1  0.06666667  0.13333333  0.86384593  1
  Ta  Ta24  1  0.06666667  0.33333333  0.06384593  1
  Ta  Ta24  1  0.06666667  0.33333333  0.26384593  1
  Ta  Ta24  1  0.06666667  0.33333333  0.46384593  1
  Ta  Ta24  1  0.06666667  0.33333333  0.66384593  1
  Ta  Ta24  1  0.06666667  0.33333333  0.86384593  1
  Ta  Ta24  1  0.06666667  0.53333333  0.06384593  1
  Ta  Ta24  1  0.06666667  0.53333333  0.26384593  1
  Ta  Ta24  1  0.06666667  0.53333333  0.46384593  1
  Ta  Ta24  1  0.06666667  0.53333333  0.66384593  1
  Ta  Ta24  1  0.06666667  0.53333333  0.86384593  1
  Ta  Ta24  1  0.06666667  0.73333333  0.06384593  1
  Ta  Ta24  1  0.06666667  0.73333333  0.26384593  1
  Ta  Ta24  1  0.06666667  0.73333333  0.46384593  1
  Ta  Ta24  1  0.06666667  0.73333333  0.66384593  1
  Ta  Ta24  1  0.06666667  0.73333333  0.86384593  1
  Ta  Ta24  1  0.06666667  0.93333333  0.06384593  1
  Ta  Ta24  1  0.06666667  0.93333333  0.26384593  1
  Ta  Ta24  1  0.06666667  0.93333333  0.46384593  1
  Ta  Ta24  1  0.06666667  0.93333333  0.66384593  1
  Ta  Ta24  1  0.06666667  0.93333333  0.86384593  1
  Ta  Ta24  1  0.26666667  0.13333333  0.06384593  1
  Ta  Ta24  1  0.26666667  0.13333333  0.26384593  1
  Ta  Ta24  1  0.26666667  0.13333333  0.46384593  1
  Ta  Ta24  1  0.26666667  0.13333333  0.66384593  1
  Ta  Ta24  1  0.26666667  0.13333333  0.86384593  1
  Ta  Ta24  1  0.26666667  0.33333333  0.06384593  1
  Ta  Ta24  1  0.26666667  0.33333333  0.26384593  1
  Ta  Ta24  1  0.26666667  0.33333333  0.46384593  1
  Ta  Ta24  1  0.26666667  0.33333333  0.66384593  1
  Ta  Ta24  1  0.26666667  0.33333333  0.86384593  1
  Ta  Ta24  1  0.26666667  0.53333333  0.06384593  1
  Ta  Ta24  1  0.26666667  0.53333333  0.26384593  1
  Ta  Ta24  1  0.26666667  0.53333333  0.46384593  1
  Ta  Ta24  1  0.26666667  0.53333333  0.66384593  1
  Ta  Ta24  1  0.26666667  0.53333333  0.86384593  1
  Ta  Ta24  1  0.26666667  0.73333333  0.06384593  1
  Ta  Ta24  1  0.26666667  0.73333333  0.26384593  1
  Ta  Ta24  1  0.26666667  0.73333333  0.46384593  1
  Ta  Ta24  1  0.26666667  0.73333333  0.66384593  1
  Ta  Ta24  1  0.26666667  0.73333333  0.86384593  1
  Ta  Ta24  1  0.26666667  0.93333333  0.06384593  1
  Ta  Ta24  1  0.26666667  0.93333333  0.26384593  1
  Ta  Ta24  1  0.26666667  0.93333333  0.46384593  1
  Ta  Ta24  1  0.26666667  0.93333333  0.66384593  1
  Ta  Ta24  1  0.26666667  0.93333333  0.86384593  1
  Ta  Ta24  1  0.46666667  0.13333333  0.06384593  1
  Ta  Ta24  1  0.46666667  0.13333333  0.26384593  1
  Ta  Ta24  1  0.46666667  0.13333333  0.46384593  1
  Ta  Ta24  1  0.46666667  0.13333333  0.66384593  1
  Ta  Ta24  1  0.46666667  0.13333333  0.86384593  1
  Ta  Ta24  1  0.46666667  0.33333333  0.06384593  1
  Ta  Ta24  1  0.46666667  0.33333333  0.26384593  1
  Ta  Ta24  1  0.46666667  0.33333333  0.46384593  1
  Ta  Ta24  1  0.46666667  0.33333333  0.66384593  1
  Ta  Ta24  1  0.46666667  0.33333333  0.86384593  1
  Ta  Ta24  1  0.46666667  0.53333333  0.06384593  1
  Ta  Ta24  1  0.46666667  0.53333333  0.26384593  1
  Ta  Ta24  1  0.46666667  0.53333333  0.46384593  1
  Ta  Ta24  1  0.46666667  0.53333333  0.66384593  1
  Ta  Ta24  1  0.46666667  0.53333333  0.86384593  1
  Ta  Ta24  1  0.46666667  0.73333333  0.06384593  1
  Ta  Ta24  1  0.46666667  0.73333333  0.26384593  1
  Ta  Ta24  1  0.46666667  0.73333333  0.46384593  1
  Ta  Ta24  1  0.46666667  0.73333333  0.66384593  1
  Ta  Ta24  1  0.46666667  0.73333333  0.86384593  1
  Ta  Ta24  1  0.46666667  0.93333333  0.06384593  1
  Ta  Ta24  1  0.46666667  0.93333333  0.26384593  1
  Ta  Ta24  1  0.46666667  0.93333333  0.46384593  1
  Ta  Ta24  1  0.46666667  0.93333333  0.66384593  1
  Ta  Ta24  1  0.46666667  0.93333333  0.86384593  1
  Ta  Ta24  1  0.66666667  0.13333333  0.06384593  1
  Ta  Ta24  1  0.66666667  0.13333333  0.26384593  1
  Ta  Ta24  1  0.66666667  0.13333333  0.46384593  1
  Ta  Ta24  1  0.66666667  0.13333333  0.66384593  1
  Ta  Ta24  1  0.66666667  0.13333333  0.86384593  1
  Ta  Ta24  1  0.66666667  0.33333333  0.06384593  1
  Ta  Ta24  1  0.66666667  0.33333333  0.26384593  1
  Ta  Ta24  1  0.66666667  0.33333333  0.46384593  1
  Ta  Ta24  1  0.66666667  0.33333333  0.66384593  1
  Ta  Ta24  1  0.66666667  0.33333333  0.86384593  1
  Ta  Ta24  1  0.66666667  0.53333333  0.06384593  1
  Ta  Ta24  1  0.66666667  0.53333333  0.26384593  1
  Ta  Ta24  1  0.66666667  0.53333333  0.46384593  1
  Ta  Ta24  1  0.66666667  0.53333333  0.66384593  1
  Ta  Ta24  1  0.66666667  0.53333333  0.86384593  1
  Ta  Ta24  1  0.66666667  0.73333333  0.06384593  1
  Ta  Ta24  1  0.66666667  0.73333333  0.26384593  1
  Ta  Ta24  1  0.66666667  0.73333333  0.46384593  1
  Ta  Ta24  1  0.66666667  0.73333333  0.66384593  1
  Ta  Ta24  1  0.66666667  0.73333333  0.86384593  1
  Ta  Ta24  1  0.66666667  0.93333333  0.06384593  1
  Ta  Ta24  1  0.66666667  0.93333333  0.26384593  1
  Ta  Ta24  1  0.66666667  0.93333333  0.46384593  1
  Ta  Ta24  1  0.66666667  0.93333333  0.66384593  1
  Ta  Ta24  1  0.66666667  0.93333333  0.86384593  1
  Ta  Ta24  1  0.86666667  0.13333333  0.06384593  1
  Ta  Ta24  1  0.86666667  0.13333333  0.26384593  1
  Ta  Ta24  1  0.86666667  0.13333333  0.46384593  1
  Ta  Ta24  1  0.86666667  0.13333333  0.66384593  1
  Ta  Ta24  1  0.86666667  0.13333333  0.86384593  1
  Ta  Ta24  1  0.86666667  0.33333333  0.06384593  1
  Ta  Ta24  1  0.86666667  0.33333333  0.26384593  1
  Ta  Ta24  1  0.86666667  0.33333333  0.46384593  1
  Ta  Ta24  1  0.86666667  0.33333333  0.66384593  1
  Ta  Ta24  1  0.86666667  0.33333333  0.86384593  1
  Ta  Ta24  1  0.86666667  0.53333333  0.06384593  1
  Ta  Ta24  1  0.86666667  0.53333333  0.26384593  1
  Ta  Ta24  1  0.86666667  0.53333333  0.46384593  1
  Ta  Ta24  1  0.86666667  0.53333333  0.66384593  1
  Ta  Ta24  1  0.86666667  0.53333333  0.86384593  1
  Ta  Ta24  1  0.86666667  0.73333333  0.06384593  1
  Ta  Ta24  1  0.86666667  0.73333333  0.26384593  1
  Ta  Ta24  1  0.86666667  0.73333333  0.46384593  1
  Ta  Ta24  1  0.86666667  0.73333333  0.66384593  1
  Ta  Ta24  1  0.86666667  0.73333333  0.86384593  1
  Ta  Ta24  1  0.86666667  0.93333333  0.06384593  1
  Ta  Ta24  1  0.86666667  0.93333333  0.26384593  1
  Ta  Ta24  1  0.86666667  0.93333333  0.46384593  1
  Ta  Ta24  1  0.86666667  0.93333333  0.66384593  1
  Ta  Ta24  1  0.86666667  0.93333333  0.86384593  1
  Ta  Ta25  1  0.06666667  0.13333333  0.02340733  1
  Ta  Ta25  1  0.06666667  0.13333333  0.22340733  1
  Ta  Ta25  1  0.06666667  0.13333333  0.42340733  1
  Ta  Ta25  1  0.06666667  0.13333333  0.62340733  1
  Ta  Ta25  1  0.06666667  0.13333333  0.82340733  1
  Ta  Ta25  1  0.06666667  0.33333333  0.02340733  1
  Ta  Ta25  1  0.06666667  0.33333333  0.22340733  1
  Ta  Ta25  1  0.06666667  0.33333333  0.42340733  1
  Ta  Ta25  1  0.06666667  0.33333333  0.62340733  1
  Ta  Ta25  1  0.06666667  0.33333333  0.82340733  1
  Ta  Ta25  1  0.06666667  0.53333333  0.02340733  1
  Ta  Ta25  1  0.06666667  0.53333333  0.22340733  1
  Ta  Ta25  1  0.06666667  0.53333333  0.42340733  1
  Ta  Ta25  1  0.06666667  0.53333333  0.62340733  1
  Ta  Ta25  1  0.06666667  0.53333333  0.82340733  1
  Ta  Ta25  1  0.06666667  0.73333333  0.02340733  1
  Ta  Ta25  1  0.06666667  0.73333333  0.22340733  1
  Ta  Ta25  1  0.06666667  0.73333333  0.42340733  1
  Ta  Ta25  1  0.06666667  0.73333333  0.62340733  1
  Ta  Ta25  1  0.06666667  0.73333333  0.82340733  1
  Ta  Ta25  1  0.06666667  0.93333333  0.02340733  1
  Ta  Ta25  1  0.06666667  0.93333333  0.22340733  1
  Ta  Ta25  1  0.06666667  0.93333333  0.42340733  1
  Ta  Ta25  1  0.06666667  0.93333333  0.62340733  1
  Ta  Ta25  1  0.06666667  0.93333333  0.82340733  1
  Ta  Ta25  1  0.26666667  0.13333333  0.02340733  1
  Ta  Ta25  1  0.26666667  0.13333333  0.22340733  1
  Ta  Ta25  1  0.26666667  0.13333333  0.42340733  1
  Ta  Ta25  1  0.26666667  0.13333333  0.62340733  1
  Ta  Ta25  1  0.26666667  0.13333333  0.82340733  1
  Ta  Ta25  1  0.26666667  0.33333333  0.02340733  1
  Ta  Ta25  1  0.26666667  0.33333333  0.22340733  1
  Ta  Ta25  1  0.26666667  0.33333333  0.42340733  1
  Ta  Ta25  1  0.26666667  0.33333333  0.62340733  1
  Ta  Ta25  1  0.26666667  0.33333333  0.82340733  1
  Ta  Ta25  1  0.26666667  0.53333333  0.02340733  1
  Ta  Ta25  1  0.26666667  0.53333333  0.22340733  1
  Ta  Ta25  1  0.26666667  0.53333333  0.42340733  1
  Ta  Ta25  1  0.26666667  0.53333333  0.62340733  1
  Ta  Ta25  1  0.26666667  0.53333333  0.82340733  1
  Ta  Ta25  1  0.26666667  0.73333333  0.02340733  1
  Ta  Ta25  1  0.26666667  0.73333333  0.22340733  1
  Ta  Ta25  1  0.26666667  0.73333333  0.42340733  1
  Ta  Ta25  1  0.26666667  0.73333333  0.62340733  1
  Ta  Ta25  1  0.26666667  0.73333333  0.82340733  1
  Ta  Ta25  1  0.26666667  0.93333333  0.02340733  1
  Ta  Ta25  1  0.26666667  0.93333333  0.22340733  1
  Ta  Ta25  1  0.26666667  0.93333333  0.42340733  1
  Ta  Ta25  1  0.26666667  0.93333333  0.62340733  1
  Ta  Ta25  1  0.26666667  0.93333333  0.82340733  1
  Ta  Ta25  1  0.46666667  0.13333333  0.02340733  1
  Ta  Ta25  1  0.46666667  0.13333333  0.22340733  1
  Ta  Ta25  1  0.46666667  0.13333333  0.42340733  1
  Ta  Ta25  1  0.46666667  0.13333333  0.62340733  1
  Ta  Ta25  1  0.46666667  0.13333333  0.82340733  1
  Ta  Ta25  1  0.46666667  0.33333333  0.02340733  1
  Ta  Ta25  1  0.46666667  0.33333333  0.22340733  1
  Ta  Ta25  1  0.46666667  0.33333333  0.42340733  1
  Ta  Ta25  1  0.46666667  0.33333333  0.62340733  1
  Ta  Ta25  1  0.46666667  0.33333333  0.82340733  1
  Ta  Ta25  1  0.46666667  0.53333333  0.02340733  1
  Ta  Ta25  1  0.46666667  0.53333333  0.22340733  1
  Ta  Ta25  1  0.46666667  0.53333333  0.42340733  1
  Ta  Ta25  1  0.46666667  0.53333333  0.62340733  1
  Ta  Ta25  1  0.46666667  0.53333333  0.82340733  1
  Ta  Ta25  1  0.46666667  0.73333333  0.02340733  1
  Ta  Ta25  1  0.46666667  0.73333333  0.22340733  1
  Ta  Ta25  1  0.46666667  0.73333333  0.42340733  1
  Ta  Ta25  1  0.46666667  0.73333333  0.62340733  1
  Ta  Ta25  1  0.46666667  0.73333333  0.82340733  1
  Ta  Ta25  1  0.46666667  0.93333333  0.02340733  1
  Ta  Ta25  1  0.46666667  0.93333333  0.22340733  1
  Ta  Ta25  1  0.46666667  0.93333333  0.42340733  1
  Ta  Ta25  1  0.46666667  0.93333333  0.62340733  1
  Ta  Ta25  1  0.46666667  0.93333333  0.82340733  1
  Ta  Ta25  1  0.66666667  0.13333333  0.02340733  1
  Ta  Ta25  1  0.66666667  0.13333333  0.22340733  1
  Ta  Ta25  1  0.66666667  0.13333333  0.42340733  1
  Ta  Ta25  1  0.66666667  0.13333333  0.62340733  1
  Ta  Ta25  1  0.66666667  0.13333333  0.82340733  1
  Ta  Ta25  1  0.66666667  0.33333333  0.02340733  1
  Ta  Ta25  1  0.66666667  0.33333333  0.22340733  1
  Ta  Ta25  1  0.66666667  0.33333333  0.42340733  1
  Ta  Ta25  1  0.66666667  0.33333333  0.62340733  1
  Ta  Ta25  1  0.66666667  0.33333333  0.82340733  1
  Ta  Ta25  1  0.66666667  0.53333333  0.02340733  1
  Ta  Ta25  1  0.66666667  0.53333333  0.22340733  1
  Ta  Ta25  1  0.66666667  0.53333333  0.42340733  1
  Ta  Ta25  1  0.66666667  0.53333333  0.62340733  1
  Ta  Ta25  1  0.66666667  0.53333333  0.82340733  1
  Ta  Ta25  1  0.66666667  0.73333333  0.02340733  1
  Ta  Ta25  1  0.66666667  0.73333333  0.22340733  1
  Ta  Ta25  1  0.66666667  0.73333333  0.42340733  1
  Ta  Ta25  1  0.66666667  0.73333333  0.62340733  1
  Ta  Ta25  1  0.66666667  0.73333333  0.82340733  1
  Ta  Ta25  1  0.66666667  0.93333333  0.02340733  1
  Ta  Ta25  1  0.66666667  0.93333333  0.22340733  1
  Ta  Ta25  1  0.66666667  0.93333333  0.42340733  1
  Ta  Ta25  1  0.66666667  0.93333333  0.62340733  1
  Ta  Ta25  1  0.66666667  0.93333333  0.82340733  1
  Ta  Ta25  1  0.86666667  0.13333333  0.02340733  1
  Ta  Ta25  1  0.86666667  0.13333333  0.22340733  1
  Ta  Ta25  1  0.86666667  0.13333333  0.42340733  1
  Ta  Ta25  1  0.86666667  0.13333333  0.62340733  1
  Ta  Ta25  1  0.86666667  0.13333333  0.82340733  1
  Ta  Ta25  1  0.86666667  0.33333333  0.02340733  1
  Ta  Ta25  1  0.86666667  0.33333333  0.22340733  1
  Ta  Ta25  1  0.86666667  0.33333333  0.42340733  1
  Ta  Ta25  1  0.86666667  0.33333333  0.62340733  1
  Ta  Ta25  1  0.86666667  0.33333333  0.82340733  1
  Ta  Ta25  1  0.86666667  0.53333333  0.02340733  1
  Ta  Ta25  1  0.86666667  0.53333333  0.22340733  1
  Ta  Ta25  1  0.86666667  0.53333333  0.42340733  1
  Ta  Ta25  1  0.86666667  0.53333333  0.62340733  1
  Ta  Ta25  1  0.86666667  0.53333333  0.82340733  1
  Ta  Ta25  1  0.86666667  0.73333333  0.02340733  1
  Ta  Ta25  1  0.86666667  0.73333333  0.22340733  1
  Ta  Ta25  1  0.86666667  0.73333333  0.42340733  1
  Ta  Ta25  1  0.86666667  0.73333333  0.62340733  1
  Ta  Ta25  1  0.86666667  0.73333333  0.82340733  1
  Ta  Ta25  1  0.86666667  0.93333333  0.02340733  1
  Ta  Ta25  1  0.86666667  0.93333333  0.22340733  1
  Ta  Ta25  1  0.86666667  0.93333333  0.42340733  1
  Ta  Ta25  1  0.86666667  0.93333333  0.62340733  1
  Ta  Ta25  1  0.86666667  0.93333333  0.82340733  1
  Ta  Ta26  1  0.06666667  0.13333333  0.04325933  1
  Ta  Ta26  1  0.06666667  0.13333333  0.24325933  1
  Ta  Ta26  1  0.06666667  0.13333333  0.44325933  1
  Ta  Ta26  1  0.06666667  0.13333333  0.64325933  1
  Ta  Ta26  1  0.06666667  0.13333333  0.84325933  1
  Ta  Ta26  1  0.06666667  0.33333333  0.04325933  1
  Ta  Ta26  1  0.06666667  0.33333333  0.24325933  1
  Ta  Ta26  1  0.06666667  0.33333333  0.44325933  1
  Ta  Ta26  1  0.06666667  0.33333333  0.64325933  1
  Ta  Ta26  1  0.06666667  0.33333333  0.84325933  1
  Ta  Ta26  1  0.06666667  0.53333333  0.04325933  1
  Ta  Ta26  1  0.06666667  0.53333333  0.24325933  1
  Ta  Ta26  1  0.06666667  0.53333333  0.44325933  1
  Ta  Ta26  1  0.06666667  0.53333333  0.64325933  1
  Ta  Ta26  1  0.06666667  0.53333333  0.84325933  1
  Ta  Ta26  1  0.06666667  0.73333333  0.04325933  1
  Ta  Ta26  1  0.06666667  0.73333333  0.24325933  1
  Ta  Ta26  1  0.06666667  0.73333333  0.44325933  1
  Ta  Ta26  1  0.06666667  0.73333333  0.64325933  1
  Ta  Ta26  1  0.06666667  0.73333333  0.84325933  1
  Ta  Ta26  1  0.06666667  0.93333333  0.04325933  1
  Ta  Ta26  1  0.06666667  0.93333333  0.24325933  1
  Ta  Ta26  1  0.06666667  0.93333333  0.44325933  1
  Ta  Ta26  1  0.06666667  0.93333333  0.64325933  1
  Ta  Ta26  1  0.06666667  0.93333333  0.84325933  1
  Ta  Ta26  1  0.26666667  0.13333333  0.04325933  1
  Ta  Ta26  1  0.26666667  0.13333333  0.24325933  1
  Ta  Ta26  1  0.26666667  0.13333333  0.44325933  1
  Ta  Ta26  1  0.26666667  0.13333333  0.64325933  1
  Ta  Ta26  1  0.26666667  0.13333333  0.84325933  1
  Ta  Ta26  1  0.26666667  0.33333333  0.04325933  1
  Ta  Ta26  1  0.26666667  0.33333333  0.24325933  1
  Ta  Ta26  1  0.26666667  0.33333333  0.44325933  1
  Ta  Ta26  1  0.26666667  0.33333333  0.64325933  1
  Ta  Ta26  1  0.26666667  0.33333333  0.84325933  1
  Ta  Ta26  1  0.26666667  0.53333333  0.04325933  1
  Ta  Ta26  1  0.26666667  0.53333333  0.24325933  1
  Ta  Ta26  1  0.26666667  0.53333333  0.44325933  1
  Ta  Ta26  1  0.26666667  0.53333333  0.64325933  1
  Ta  Ta26  1  0.26666667  0.53333333  0.84325933  1
  Ta  Ta26  1  0.26666667  0.73333333  0.04325933  1
  Ta  Ta26  1  0.26666667  0.73333333  0.24325933  1
  Ta  Ta26  1  0.26666667  0.73333333  0.44325933  1
  Ta  Ta26  1  0.26666667  0.73333333  0.64325933  1
  Ta  Ta26  1  0.26666667  0.73333333  0.84325933  1
  Ta  Ta26  1  0.26666667  0.93333333  0.04325933  1
  Ta  Ta26  1  0.26666667  0.93333333  0.24325933  1
  Ta  Ta26  1  0.26666667  0.93333333  0.44325933  1
  Ta  Ta26  1  0.26666667  0.93333333  0.64325933  1
  Ta  Ta26  1  0.26666667  0.93333333  0.84325933  1
  Ta  Ta26  1  0.46666667  0.13333333  0.04325933  1
  Ta  Ta26  1  0.46666667  0.13333333  0.24325933  1
  Ta  Ta26  1  0.46666667  0.13333333  0.44325933  1
  Ta  Ta26  1  0.46666667  0.13333333  0.64325933  1
  Ta  Ta26  1  0.46666667  0.13333333  0.84325933  1
  Ta  Ta26  1  0.46666667  0.33333333  0.04325933  1
  Ta  Ta26  1  0.46666667  0.33333333  0.24325933  1
  Ta  Ta26  1  0.46666667  0.33333333  0.44325933  1
  Ta  Ta26  1  0.46666667  0.33333333  0.64325933  1
  Ta  Ta26  1  0.46666667  0.33333333  0.84325933  1
  Ta  Ta26  1  0.46666667  0.53333333  0.04325933  1
  Ta  Ta26  1  0.46666667  0.53333333  0.24325933  1
  Ta  Ta26  1  0.46666667  0.53333333  0.44325933  1
  Ta  Ta26  1  0.46666667  0.53333333  0.64325933  1
  Ta  Ta26  1  0.46666667  0.53333333  0.84325933  1
  Ta  Ta26  1  0.46666667  0.73333333  0.04325933  1
  Ta  Ta26  1  0.46666667  0.73333333  0.24325933  1
  Ta  Ta26  1  0.46666667  0.73333333  0.44325933  1
  Ta  Ta26  1  0.46666667  0.73333333  0.64325933  1
  Ta  Ta26  1  0.46666667  0.73333333  0.84325933  1
  Ta  Ta26  1  0.46666667  0.93333333  0.04325933  1
  Ta  Ta26  1  0.46666667  0.93333333  0.24325933  1
  Ta  Ta26  1  0.46666667  0.93333333  0.44325933  1
  Ta  Ta26  1  0.46666667  0.93333333  0.64325933  1
  Ta  Ta26  1  0.46666667  0.93333333  0.84325933  1
  Ta  Ta26  1  0.66666667  0.13333333  0.04325933  1
  Ta  Ta26  1  0.66666667  0.13333333  0.24325933  1
  Ta  Ta26  1  0.66666667  0.13333333  0.44325933  1
  Ta  Ta26  1  0.66666667  0.13333333  0.64325933  1
  Ta  Ta26  1  0.66666667  0.13333333  0.84325933  1
  Ta  Ta26  1  0.66666667  0.33333333  0.04325933  1
  Ta  Ta26  1  0.66666667  0.33333333  0.24325933  1
  Ta  Ta26  1  0.66666667  0.33333333  0.44325933  1
  Ta  Ta26  1  0.66666667  0.33333333  0.64325933  1
  Ta  Ta26  1  0.66666667  0.33333333  0.84325933  1
  Ta  Ta26  1  0.66666667  0.53333333  0.04325933  1
  Ta  Ta26  1  0.66666667  0.53333333  0.24325933  1
  Ta  Ta26  1  0.66666667  0.53333333  0.44325933  1
  Ta  Ta26  1  0.66666667  0.53333333  0.64325933  1
  Ta  Ta26  1  0.66666667  0.53333333  0.84325933  1
  Ta  Ta26  1  0.66666667  0.73333333  0.04325933  1
  Ta  Ta26  1  0.66666667  0.73333333  0.24325933  1
  Ta  Ta26  1  0.66666667  0.73333333  0.44325933  1
  Ta  Ta26  1  0.66666667  0.73333333  0.64325933  1
  Ta  Ta26  1  0.66666667  0.73333333  0.84325933  1
  Ta  Ta26  1  0.66666667  0.93333333  0.04325933  1
  Ta  Ta26  1  0.66666667  0.93333333  0.24325933  1
  Ta  Ta26  1  0.66666667  0.93333333  0.44325933  1
  Ta  Ta26  1  0.66666667  0.93333333  0.64325933  1
  Ta  Ta26  1  0.66666667  0.93333333  0.84325933  1
  Ta  Ta26  1  0.86666667  0.13333333  0.04325933  1
  Ta  Ta26  1  0.86666667  0.13333333  0.24325933  1
  Ta  Ta26  1  0.86666667  0.13333333  0.44325933  1
  Ta  Ta26  1  0.86666667  0.13333333  0.64325933  1
  Ta  Ta26  1  0.86666667  0.13333333  0.84325933  1
  Ta  Ta26  1  0.86666667  0.33333333  0.04325933  1
  Ta  Ta26  1  0.86666667  0.33333333  0.24325933  1
  Ta  Ta26  1  0.86666667  0.33333333  0.44325933  1
  Ta  Ta26  1  0.86666667  0.33333333  0.64325933  1
  Ta  Ta26  1  0.86666667  0.33333333  0.84325933  1
  Ta  Ta26  1  0.86666667  0.53333333  0.04325933  1
  Ta  Ta26  1  0.86666667  0.53333333  0.24325933  1
  Ta  Ta26  1  0.86666667  0.53333333  0.44325933  1
  Ta  Ta26  1  0.86666667  0.53333333  0.64325933  1
  Ta  Ta26  1  0.86666667  0.53333333  0.84325933  1
  Ta  Ta26  1  0.86666667  0.73333333  0.04325933  1
  Ta  Ta26  1  0.86666667  0.73333333  0.24325933  1
  Ta  Ta26  1  0.86666667  0.73333333  0.44325933  1
  Ta  Ta26  1  0.86666667  0.73333333  0.64325933  1
  Ta  Ta26  1  0.86666667  0.73333333  0.84325933  1
  Ta  Ta26  1  0.86666667  0.93333333  0.04325933  1
  Ta  Ta26  1  0.86666667  0.93333333  0.24325933  1
  Ta  Ta26  1  0.86666667  0.93333333  0.44325933  1
  Ta  Ta26  1  0.86666667  0.93333333  0.64325933  1
  Ta  Ta26  1  0.86666667  0.93333333  0.84325933  1
  Ta  Ta27  1  0.13333333  0.06666667  0.09988667  1
  Ta  Ta27  1  0.13333333  0.06666667  0.29988667  1
  Ta  Ta27  1  0.13333333  0.06666667  0.49988667  1
  Ta  Ta27  1  0.13333333  0.06666667  0.69988667  1
  Ta  Ta27  1  0.13333333  0.06666667  0.89988667  1
  Ta  Ta27  1  0.13333333  0.26666667  0.09988667  1
  Ta  Ta27  1  0.13333333  0.26666667  0.29988667  1
  Ta  Ta27  1  0.13333333  0.26666667  0.49988667  1
  Ta  Ta27  1  0.13333333  0.26666667  0.69988667  1
  Ta  Ta27  1  0.13333333  0.26666667  0.89988667  1
  Ta  Ta27  1  0.13333333  0.46666667  0.09988667  1
  Ta  Ta27  1  0.13333333  0.46666667  0.29988667  1
  Ta  Ta27  1  0.13333333  0.46666667  0.49988667  1
  Ta  Ta27  1  0.13333333  0.46666667  0.69988667  1
  Ta  Ta27  1  0.13333333  0.46666667  0.89988667  1
  Ta  Ta27  1  0.13333333  0.66666667  0.09988667  1
  Ta  Ta27  1  0.13333333  0.66666667  0.29988667  1
  Ta  Ta27  1  0.13333333  0.66666667  0.49988667  1
  Ta  Ta27  1  0.13333333  0.66666667  0.69988667  1
  Ta  Ta27  1  0.13333333  0.66666667  0.89988667  1
  Ta  Ta27  1  0.13333333  0.86666667  0.09988667  1
  Ta  Ta27  1  0.13333333  0.86666667  0.29988667  1
  Ta  Ta27  1  0.13333333  0.86666667  0.49988667  1
  Ta  Ta27  1  0.13333333  0.86666667  0.69988667  1
  Ta  Ta27  1  0.13333333  0.86666667  0.89988667  1
  Ta  Ta27  1  0.33333333  0.06666667  0.09988667  1
  Ta  Ta27  1  0.33333333  0.06666667  0.29988667  1
  Ta  Ta27  1  0.33333333  0.06666667  0.49988667  1
  Ta  Ta27  1  0.33333333  0.06666667  0.69988667  1
  Ta  Ta27  1  0.33333333  0.06666667  0.89988667  1
  Ta  Ta27  1  0.33333333  0.26666667  0.09988667  1
  Ta  Ta27  1  0.33333333  0.26666667  0.29988667  1
  Ta  Ta27  1  0.33333333  0.26666667  0.49988667  1
  Ta  Ta27  1  0.33333333  0.26666667  0.69988667  1
  Ta  Ta27  1  0.33333333  0.26666667  0.89988667  1
  Ta  Ta27  1  0.33333333  0.46666667  0.09988667  1
  Ta  Ta27  1  0.33333333  0.46666667  0.29988667  1
  Ta  Ta27  1  0.33333333  0.46666667  0.49988667  1
  Ta  Ta27  1  0.33333333  0.46666667  0.69988667  1
  Ta  Ta27  1  0.33333333  0.46666667  0.89988667  1
  Ta  Ta27  1  0.33333333  0.66666667  0.09988667  1
  Ta  Ta27  1  0.33333333  0.66666667  0.29988667  1
  Ta  Ta27  1  0.33333333  0.66666667  0.49988667  1
  Ta  Ta27  1  0.33333333  0.66666667  0.69988667  1
  Ta  Ta27  1  0.33333333  0.66666667  0.89988667  1
  Ta  Ta27  1  0.33333333  0.86666667  0.09988667  1
  Ta  Ta27  1  0.33333333  0.86666667  0.29988667  1
  Ta  Ta27  1  0.33333333  0.86666667  0.49988667  1
  Ta  Ta27  1  0.33333333  0.86666667  0.69988667  1
  Ta  Ta27  1  0.33333333  0.86666667  0.89988667  1
  Ta  Ta27  1  0.53333333  0.06666667  0.09988667  1
  Ta  Ta27  1  0.53333333  0.06666667  0.29988667  1
  Ta  Ta27  1  0.53333333  0.06666667  0.49988667  1
  Ta  Ta27  1  0.53333333  0.06666667  0.69988667  1
  Ta  Ta27  1  0.53333333  0.06666667  0.89988667  1
  Ta  Ta27  1  0.53333333  0.26666667  0.09988667  1
  Ta  Ta27  1  0.53333333  0.26666667  0.29988667  1
  Ta  Ta27  1  0.53333333  0.26666667  0.49988667  1
  Ta  Ta27  1  0.53333333  0.26666667  0.69988667  1
  Ta  Ta27  1  0.53333333  0.26666667  0.89988667  1
  Ta  Ta27  1  0.53333333  0.46666667  0.09988667  1
  Ta  Ta27  1  0.53333333  0.46666667  0.29988667  1
  Ta  Ta27  1  0.53333333  0.46666667  0.49988667  1
  Ta  Ta27  1  0.53333333  0.46666667  0.69988667  1
  Ta  Ta27  1  0.53333333  0.46666667  0.89988667  1
  Ta  Ta27  1  0.53333333  0.66666667  0.09988667  1
  Ta  Ta27  1  0.53333333  0.66666667  0.29988667  1
  Ta  Ta27  1  0.53333333  0.66666667  0.49988667  1
  Ta  Ta27  1  0.53333333  0.66666667  0.69988667  1
  Ta  Ta27  1  0.53333333  0.66666667  0.89988667  1
  Ta  Ta27  1  0.53333333  0.86666667  0.09988667  1
  Ta  Ta27  1  0.53333333  0.86666667  0.29988667  1
  Ta  Ta27  1  0.53333333  0.86666667  0.49988667  1
  Ta  Ta27  1  0.53333333  0.86666667  0.69988667  1
  Ta  Ta27  1  0.53333333  0.86666667  0.89988667  1
  Ta  Ta27  1  0.73333333  0.06666667  0.09988667  1
  Ta  Ta27  1  0.73333333  0.06666667  0.29988667  1
  Ta  Ta27  1  0.73333333  0.06666667  0.49988667  1
  Ta  Ta27  1  0.73333333  0.06666667  0.69988667  1
  Ta  Ta27  1  0.73333333  0.06666667  0.89988667  1
  Ta  Ta27  1  0.73333333  0.26666667  0.09988667  1
  Ta  Ta27  1  0.73333333  0.26666667  0.29988667  1
  Ta  Ta27  1  0.73333333  0.26666667  0.49988667  1
  Ta  Ta27  1  0.73333333  0.26666667  0.69988667  1
  Ta  Ta27  1  0.73333333  0.26666667  0.89988667  1
  Ta  Ta27  1  0.73333333  0.46666667  0.09988667  1
  Ta  Ta27  1  0.73333333  0.46666667  0.29988667  1
  Ta  Ta27  1  0.73333333  0.46666667  0.49988667  1
  Ta  Ta27  1  0.73333333  0.46666667  0.69988667  1
  Ta  Ta27  1  0.73333333  0.46666667  0.89988667  1
  Ta  Ta27  1  0.73333333  0.66666667  0.09988667  1
  Ta  Ta27  1  0.73333333  0.66666667  0.29988667  1
  Ta  Ta27  1  0.73333333  0.66666667  0.49988667  1
  Ta  Ta27  1  0.73333333  0.66666667  0.69988667  1
  Ta  Ta27  1  0.73333333  0.66666667  0.89988667  1
  Ta  Ta27  1  0.73333333  0.86666667  0.09988667  1
  Ta  Ta27  1  0.73333333  0.86666667  0.29988667  1
  Ta  Ta27  1  0.73333333  0.86666667  0.49988667  1
  Ta  Ta27  1  0.73333333  0.86666667  0.69988667  1
  Ta  Ta27  1  0.73333333  0.86666667  0.89988667  1
  Ta  Ta27  1  0.93333333  0.06666667  0.09988667  1
  Ta  Ta27  1  0.93333333  0.06666667  0.29988667  1
  Ta  Ta27  1  0.93333333  0.06666667  0.49988667  1
  Ta  Ta27  1  0.93333333  0.06666667  0.69988667  1
  Ta  Ta27  1  0.93333333  0.06666667  0.89988667  1
  Ta  Ta27  1  0.93333333  0.26666667  0.09988667  1
  Ta  Ta27  1  0.93333333  0.26666667  0.29988667  1
  Ta  Ta27  1  0.93333333  0.26666667  0.49988667  1
  Ta  Ta27  1  0.93333333  0.26666667  0.69988667  1
  Ta  Ta27  1  0.93333333  0.26666667  0.89988667  1
  Ta  Ta27  1  0.93333333  0.46666667  0.09988667  1
  Ta  Ta27  1  0.93333333  0.46666667  0.29988667  1
  Ta  Ta27  1  0.93333333  0.46666667  0.49988667  1
  Ta  Ta27  1  0.93333333  0.46666667  0.69988667  1
  Ta  Ta27  1  0.93333333  0.46666667  0.89988667  1
  Ta  Ta27  1  0.93333333  0.66666667  0.09988667  1
  Ta  Ta27  1  0.93333333  0.66666667  0.29988667  1
  Ta  Ta27  1  0.93333333  0.66666667  0.49988667  1
  Ta  Ta27  1  0.93333333  0.66666667  0.69988667  1
  Ta  Ta27  1  0.93333333  0.66666667  0.89988667  1
  Ta  Ta27  1  0.93333333  0.86666667  0.09988667  1
  Ta  Ta27  1  0.93333333  0.86666667  0.29988667  1
  Ta  Ta27  1  0.93333333  0.86666667  0.49988667  1
  Ta  Ta27  1  0.93333333  0.86666667  0.69988667  1
  Ta  Ta27  1  0.93333333  0.86666667  0.89988667  1
  Ta  Ta28  1  0.06666667  0.13333333  0.10011333  1
  Ta  Ta28  1  0.06666667  0.13333333  0.30011333  1
  Ta  Ta28  1  0.06666667  0.13333333  0.50011333  1
  Ta  Ta28  1  0.06666667  0.13333333  0.70011333  1
  Ta  Ta28  1  0.06666667  0.13333333  0.90011333  1
  Ta  Ta28  1  0.06666667  0.33333333  0.10011333  1
  Ta  Ta28  1  0.06666667  0.33333333  0.30011333  1
  Ta  Ta28  1  0.06666667  0.33333333  0.50011333  1
  Ta  Ta28  1  0.06666667  0.33333333  0.70011333  1
  Ta  Ta28  1  0.06666667  0.33333333  0.90011333  1
  Ta  Ta28  1  0.06666667  0.53333333  0.10011333  1
  Ta  Ta28  1  0.06666667  0.53333333  0.30011333  1
  Ta  Ta28  1  0.06666667  0.53333333  0.50011333  1
  Ta  Ta28  1  0.06666667  0.53333333  0.70011333  1
  Ta  Ta28  1  0.06666667  0.53333333  0.90011333  1
  Ta  Ta28  1  0.06666667  0.73333333  0.10011333  1
  Ta  Ta28  1  0.06666667  0.73333333  0.30011333  1
  Ta  Ta28  1  0.06666667  0.73333333  0.50011333  1
  Ta  Ta28  1  0.06666667  0.73333333  0.70011333  1
  Ta  Ta28  1  0.06666667  0.73333333  0.90011333  1
  Ta  Ta28  1  0.06666667  0.93333333  0.10011333  1
  Ta  Ta28  1  0.06666667  0.93333333  0.30011333  1
  Ta  Ta28  1  0.06666667  0.93333333  0.50011333  1
  Ta  Ta28  1  0.06666667  0.93333333  0.70011333  1
  Ta  Ta28  1  0.06666667  0.93333333  0.90011333  1
  Ta  Ta28  1  0.26666667  0.13333333  0.10011333  1
  Ta  Ta28  1  0.26666667  0.13333333  0.30011333  1
  Ta  Ta28  1  0.26666667  0.13333333  0.50011333  1
  Ta  Ta28  1  0.26666667  0.13333333  0.70011333  1
  Ta  Ta28  1  0.26666667  0.13333333  0.90011333  1
  Ta  Ta28  1  0.26666667  0.33333333  0.10011333  1
  Ta  Ta28  1  0.26666667  0.33333333  0.30011333  1
  Ta  Ta28  1  0.26666667  0.33333333  0.50011333  1
  Ta  Ta28  1  0.26666667  0.33333333  0.70011333  1
  Ta  Ta28  1  0.26666667  0.33333333  0.90011333  1
  Ta  Ta28  1  0.26666667  0.53333333  0.10011333  1
  Ta  Ta28  1  0.26666667  0.53333333  0.30011333  1
  Ta  Ta28  1  0.26666667  0.53333333  0.50011333  1
  Ta  Ta28  1  0.26666667  0.53333333  0.70011333  1
  Ta  Ta28  1  0.26666667  0.53333333  0.90011333  1
  Ta  Ta28  1  0.26666667  0.73333333  0.10011333  1
  Ta  Ta28  1  0.26666667  0.73333333  0.30011333  1
  Ta  Ta28  1  0.26666667  0.73333333  0.50011333  1
  Ta  Ta28  1  0.26666667  0.73333333  0.70011333  1
  Ta  Ta28  1  0.26666667  0.73333333  0.90011333  1
  Ta  Ta28  1  0.26666667  0.93333333  0.10011333  1
  Ta  Ta28  1  0.26666667  0.93333333  0.30011333  1
  Ta  Ta28  1  0.26666667  0.93333333  0.50011333  1
  Ta  Ta28  1  0.26666667  0.93333333  0.70011333  1
  Ta  Ta28  1  0.26666667  0.93333333  0.90011333  1
  Ta  Ta28  1  0.46666667  0.13333333  0.10011333  1
  Ta  Ta28  1  0.46666667  0.13333333  0.30011333  1
  Ta  Ta28  1  0.46666667  0.13333333  0.50011333  1
  Ta  Ta28  1  0.46666667  0.13333333  0.70011333  1
  Ta  Ta28  1  0.46666667  0.13333333  0.90011333  1
  Ta  Ta28  1  0.46666667  0.33333333  0.10011333  1
  Ta  Ta28  1  0.46666667  0.33333333  0.30011333  1
  Ta  Ta28  1  0.46666667  0.33333333  0.50011333  1
  Ta  Ta28  1  0.46666667  0.33333333  0.70011333  1
  Ta  Ta28  1  0.46666667  0.33333333  0.90011333  1
  Ta  Ta28  1  0.46666667  0.53333333  0.10011333  1
  Ta  Ta28  1  0.46666667  0.53333333  0.30011333  1
  Ta  Ta28  1  0.46666667  0.53333333  0.50011333  1
  Ta  Ta28  1  0.46666667  0.53333333  0.70011333  1
  Ta  Ta28  1  0.46666667  0.53333333  0.90011333  1
  Ta  Ta28  1  0.46666667  0.73333333  0.10011333  1
  Ta  Ta28  1  0.46666667  0.73333333  0.30011333  1
  Ta  Ta28  1  0.46666667  0.73333333  0.50011333  1
  Ta  Ta28  1  0.46666667  0.73333333  0.70011333  1
  Ta  Ta28  1  0.46666667  0.73333333  0.90011333  1
  Ta  Ta28  1  0.46666667  0.93333333  0.10011333  1
  Ta  Ta28  1  0.46666667  0.93333333  0.30011333  1
  Ta  Ta28  1  0.46666667  0.93333333  0.50011333  1
  Ta  Ta28  1  0.46666667  0.93333333  0.70011333  1
  Ta  Ta28  1  0.46666667  0.93333333  0.90011333  1
  Ta  Ta28  1  0.66666667  0.13333333  0.10011333  1
  Ta  Ta28  1  0.66666667  0.13333333  0.30011333  1
  Ta  Ta28  1  0.66666667  0.13333333  0.50011333  1
  Ta  Ta28  1  0.66666667  0.13333333  0.70011333  1
  Ta  Ta28  1  0.66666667  0.13333333  0.90011333  1
  Ta  Ta28  1  0.66666667  0.33333333  0.10011333  1
  Ta  Ta28  1  0.66666667  0.33333333  0.30011333  1
  Ta  Ta28  1  0.66666667  0.33333333  0.50011333  1
  Ta  Ta28  1  0.66666667  0.33333333  0.70011333  1
  Ta  Ta28  1  0.66666667  0.33333333  0.90011333  1
  Ta  Ta28  1  0.66666667  0.53333333  0.10011333  1
  Ta  Ta28  1  0.66666667  0.53333333  0.30011333  1
  Ta  Ta28  1  0.66666667  0.53333333  0.50011333  1
  Ta  Ta28  1  0.66666667  0.53333333  0.70011333  1
  Ta  Ta28  1  0.66666667  0.53333333  0.90011333  1
  Ta  Ta28  1  0.66666667  0.73333333  0.10011333  1
  Ta  Ta28  1  0.66666667  0.73333333  0.30011333  1
  Ta  Ta28  1  0.66666667  0.73333333  0.50011333  1
  Ta  Ta28  1  0.66666667  0.73333333  0.70011333  1
  Ta  Ta28  1  0.66666667  0.73333333  0.90011333  1
  Ta  Ta28  1  0.66666667  0.93333333  0.10011333  1
  Ta  Ta28  1  0.66666667  0.93333333  0.30011333  1
  Ta  Ta28  1  0.66666667  0.93333333  0.50011333  1
  Ta  Ta28  1  0.66666667  0.93333333  0.70011333  1
  Ta  Ta28  1  0.66666667  0.93333333  0.90011333  1
  Ta  Ta28  1  0.86666667  0.13333333  0.10011333  1
  Ta  Ta28  1  0.86666667  0.13333333  0.30011333  1
  Ta  Ta28  1  0.86666667  0.13333333  0.50011333  1
  Ta  Ta28  1  0.86666667  0.13333333  0.70011333  1
  Ta  Ta28  1  0.86666667  0.13333333  0.90011333  1
  Ta  Ta28  1  0.86666667  0.33333333  0.10011333  1
  Ta  Ta28  1  0.86666667  0.33333333  0.30011333  1
  Ta  Ta28  1  0.86666667  0.33333333  0.50011333  1
  Ta  Ta28  1  0.86666667  0.33333333  0.70011333  1
  Ta  Ta28  1  0.86666667  0.33333333  0.90011333  1
  Ta  Ta28  1  0.86666667  0.53333333  0.10011333  1
  Ta  Ta28  1  0.86666667  0.53333333  0.30011333  1
  Ta  Ta28  1  0.86666667  0.53333333  0.50011333  1
  Ta  Ta28  1  0.86666667  0.53333333  0.70011333  1
  Ta  Ta28  1  0.86666667  0.53333333  0.90011333  1
  Ta  Ta28  1  0.86666667  0.73333333  0.10011333  1
  Ta  Ta28  1  0.86666667  0.73333333  0.30011333  1
  Ta  Ta28  1  0.86666667  0.73333333  0.50011333  1
  Ta  Ta28  1  0.86666667  0.73333333  0.70011333  1
  Ta  Ta28  1  0.86666667  0.73333333  0.90011333  1
  Ta  Ta28  1  0.86666667  0.93333333  0.10011333  1
  Ta  Ta28  1  0.86666667  0.93333333  0.30011333  1
  Ta  Ta28  1  0.86666667  0.93333333  0.50011333  1
  Ta  Ta28  1  0.86666667  0.93333333  0.70011333  1
  Ta  Ta28  1  0.86666667  0.93333333  0.90011333  1
  Ta  Ta29  1  0.00000000  0.00000000  0.06948740  1
  Ta  Ta29  1  0.00000000  0.00000000  0.26948740  1
  Ta  Ta29  1  0.00000000  0.00000000  0.46948740  1
  Ta  Ta29  1  0.00000000  0.00000000  0.66948740  1
  Ta  Ta29  1  0.00000000  0.00000000  0.86948740  1
  Ta  Ta29  1  0.00000000  0.20000000  0.06948740  1
  Ta  Ta29  1  0.00000000  0.20000000  0.26948740  1
  Ta  Ta29  1  0.00000000  0.20000000  0.46948740  1
  Ta  Ta29  1  0.00000000  0.20000000  0.66948740  1
  Ta  Ta29  1  0.00000000  0.20000000  0.86948740  1
  Ta  Ta29  1  0.00000000  0.40000000  0.06948740  1
  Ta  Ta29  1  0.00000000  0.40000000  0.26948740  1
  Ta  Ta29  1  0.00000000  0.40000000  0.46948740  1
  Ta  Ta29  1  0.00000000  0.40000000  0.66948740  1
  Ta  Ta29  1  0.00000000  0.40000000  0.86948740  1
  Ta  Ta29  1  0.00000000  0.60000000  0.06948740  1
  Ta  Ta29  1  0.00000000  0.60000000  0.26948740  1
  Ta  Ta29  1  0.00000000  0.60000000  0.46948740  1
  Ta  Ta29  1  0.00000000  0.60000000  0.66948740  1
  Ta  Ta29  1  0.00000000  0.60000000  0.86948740  1
  Ta  Ta29  1  0.00000000  0.80000000  0.06948740  1
  Ta  Ta29  1  0.00000000  0.80000000  0.26948740  1
  Ta  Ta29  1  0.00000000  0.80000000  0.46948740  1
  Ta  Ta29  1  0.00000000  0.80000000  0.66948740  1
  Ta  Ta29  1  0.00000000  0.80000000  0.86948740  1
  Ta  Ta29  1  0.20000000  0.00000000  0.06948740  1
  Ta  Ta29  1  0.20000000  0.00000000  0.26948740  1
  Ta  Ta29  1  0.20000000  0.00000000  0.46948740  1
  Ta  Ta29  1  0.20000000  0.00000000  0.66948740  1
  Ta  Ta29  1  0.20000000  0.00000000  0.86948740  1
  Ta  Ta29  1  0.20000000  0.20000000  0.06948740  1
  Ta  Ta29  1  0.20000000  0.20000000  0.26948740  1
  Ta  Ta29  1  0.20000000  0.20000000  0.46948740  1
  Ta  Ta29  1  0.20000000  0.20000000  0.66948740  1
  Ta  Ta29  1  0.20000000  0.20000000  0.86948740  1
  Ta  Ta29  1  0.20000000  0.40000000  0.06948740  1
  Ta  Ta29  1  0.20000000  0.40000000  0.26948740  1
  Ta  Ta29  1  0.20000000  0.40000000  0.46948740  1
  Ta  Ta29  1  0.20000000  0.40000000  0.66948740  1
  Ta  Ta29  1  0.20000000  0.40000000  0.86948740  1
  Ta  Ta29  1  0.20000000  0.60000000  0.06948740  1
  Ta  Ta29  1  0.20000000  0.60000000  0.26948740  1
  Ta  Ta29  1  0.20000000  0.60000000  0.46948740  1
  Ta  Ta29  1  0.20000000  0.60000000  0.66948740  1
  Ta  Ta29  1  0.20000000  0.60000000  0.86948740  1
  Ta  Ta29  1  0.20000000  0.80000000  0.06948740  1
  Ta  Ta29  1  0.20000000  0.80000000  0.26948740  1
  Ta  Ta29  1  0.20000000  0.80000000  0.46948740  1
  Ta  Ta29  1  0.20000000  0.80000000  0.66948740  1
  Ta  Ta29  1  0.20000000  0.80000000  0.86948740  1
  Ta  Ta29  1  0.40000000  0.00000000  0.06948740  1
  Ta  Ta29  1  0.40000000  0.00000000  0.26948740  1
  Ta  Ta29  1  0.40000000  0.00000000  0.46948740  1
  Ta  Ta29  1  0.40000000  0.00000000  0.66948740  1
  Ta  Ta29  1  0.40000000  0.00000000  0.86948740  1
  Ta  Ta29  1  0.40000000  0.20000000  0.06948740  1
  Ta  Ta29  1  0.40000000  0.20000000  0.26948740  1
  Ta  Ta29  1  0.40000000  0.20000000  0.46948740  1
  Ta  Ta29  1  0.40000000  0.20000000  0.66948740  1
  Ta  Ta29  1  0.40000000  0.20000000  0.86948740  1
  Ta  Ta29  1  0.40000000  0.40000000  0.06948740  1
  Ta  Ta29  1  0.40000000  0.40000000  0.26948740  1
  Ta  Ta29  1  0.40000000  0.40000000  0.46948740  1
  Ta  Ta29  1  0.40000000  0.40000000  0.66948740  1
  Ta  Ta29  1  0.40000000  0.40000000  0.86948740  1
  Ta  Ta29  1  0.40000000  0.60000000  0.06948740  1
  Ta  Ta29  1  0.40000000  0.60000000  0.26948740  1
  Ta  Ta29  1  0.40000000  0.60000000  0.46948740  1
  Ta  Ta29  1  0.40000000  0.60000000  0.66948740  1
  Ta  Ta29  1  0.40000000  0.60000000  0.86948740  1
  Ta  Ta29  1  0.40000000  0.80000000  0.06948740  1
  Ta  Ta29  1  0.40000000  0.80000000  0.26948740  1
  Ta  Ta29  1  0.40000000  0.80000000  0.46948740  1
  Ta  Ta29  1  0.40000000  0.80000000  0.66948740  1
  Ta  Ta29  1  0.40000000  0.80000000  0.86948740  1
  Ta  Ta29  1  0.60000000  0.00000000  0.06948740  1
  Ta  Ta29  1  0.60000000  0.00000000  0.26948740  1
  Ta  Ta29  1  0.60000000  0.00000000  0.46948740  1
  Ta  Ta29  1  0.60000000  0.00000000  0.66948740  1
  Ta  Ta29  1  0.60000000  0.00000000  0.86948740  1
  Ta  Ta29  1  0.60000000  0.20000000  0.06948740  1
  Ta  Ta29  1  0.60000000  0.20000000  0.26948740  1
  Ta  Ta29  1  0.60000000  0.20000000  0.46948740  1
  Ta  Ta29  1  0.60000000  0.20000000  0.66948740  1
  Ta  Ta29  1  0.60000000  0.20000000  0.86948740  1
  Ta  Ta29  1  0.60000000  0.40000000  0.06948740  1
  Ta  Ta29  1  0.60000000  0.40000000  0.26948740  1
  Ta  Ta29  1  0.60000000  0.40000000  0.46948740  1
  Ta  Ta29  1  0.60000000  0.40000000  0.66948740  1
  Ta  Ta29  1  0.60000000  0.40000000  0.86948740  1
  Ta  Ta29  1  0.60000000  0.60000000  0.06948740  1
  Ta  Ta29  1  0.60000000  0.60000000  0.26948740  1
  Ta  Ta29  1  0.60000000  0.60000000  0.46948740  1
  Ta  Ta29  1  0.60000000  0.60000000  0.66948740  1
  Ta  Ta29  1  0.60000000  0.60000000  0.86948740  1
  Ta  Ta29  1  0.60000000  0.80000000  0.06948740  1
  Ta  Ta29  1  0.60000000  0.80000000  0.26948740  1
  Ta  Ta29  1  0.60000000  0.80000000  0.46948740  1
  Ta  Ta29  1  0.60000000  0.80000000  0.66948740  1
  Ta  Ta29  1  0.60000000  0.80000000  0.86948740  1
  Ta  Ta29  1  0.80000000  0.00000000  0.06948740  1
  Ta  Ta29  1  0.80000000  0.00000000  0.26948740  1
  Ta  Ta29  1  0.80000000  0.00000000  0.46948740  1
  Ta  Ta29  1  0.80000000  0.00000000  0.66948740  1
  Ta  Ta29  1  0.80000000  0.00000000  0.86948740  1
  Ta  Ta29  1  0.80000000  0.20000000  0.06948740  1
  Ta  Ta29  1  0.80000000  0.20000000  0.26948740  1
  Ta  Ta29  1  0.80000000  0.20000000  0.46948740  1
  Ta  Ta29  1  0.80000000  0.20000000  0.66948740  1
  Ta  Ta29  1  0.80000000  0.20000000  0.86948740  1
  Ta  Ta29  1  0.80000000  0.40000000  0.06948740  1
  Ta  Ta29  1  0.80000000  0.40000000  0.26948740  1
  Ta  Ta29  1  0.80000000  0.40000000  0.46948740  1
  Ta  Ta29  1  0.80000000  0.40000000  0.66948740  1
  Ta  Ta29  1  0.80000000  0.40000000  0.86948740  1
  Ta  Ta29  1  0.80000000  0.60000000  0.06948740  1
  Ta  Ta29  1  0.80000000  0.60000000  0.26948740  1
  Ta  Ta29  1  0.80000000  0.60000000  0.46948740  1
  Ta  Ta29  1  0.80000000  0.60000000  0.66948740  1
  Ta  Ta29  1  0.80000000  0.60000000  0.86948740  1
  Ta  Ta29  1  0.80000000  0.80000000  0.06948740  1
  Ta  Ta29  1  0.80000000  0.80000000  0.26948740  1
  Ta  Ta29  1  0.80000000  0.80000000  0.46948740  1
  Ta  Ta29  1  0.80000000  0.80000000  0.66948740  1
  Ta  Ta29  1  0.80000000  0.80000000  0.86948740  1
  Ta  Ta30  1  0.00000000  0.00000000  0.13051260  1
  Ta  Ta30  1  0.00000000  0.00000000  0.33051260  1
  Ta  Ta30  1  0.00000000  0.00000000  0.53051260  1
  Ta  Ta30  1  0.00000000  0.00000000  0.73051260  1
  Ta  Ta30  1  0.00000000  0.00000000  0.93051260  1
  Ta  Ta30  1  0.00000000  0.20000000  0.13051260  1
  Ta  Ta30  1  0.00000000  0.20000000  0.33051260  1
  Ta  Ta30  1  0.00000000  0.20000000  0.53051260  1
  Ta  Ta30  1  0.00000000  0.20000000  0.73051260  1
  Ta  Ta30  1  0.00000000  0.20000000  0.93051260  1
  Ta  Ta30  1  0.00000000  0.40000000  0.13051260  1
  Ta  Ta30  1  0.00000000  0.40000000  0.33051260  1
  Ta  Ta30  1  0.00000000  0.40000000  0.53051260  1
  Ta  Ta30  1  0.00000000  0.40000000  0.73051260  1
  Ta  Ta30  1  0.00000000  0.40000000  0.93051260  1
  Ta  Ta30  1  0.00000000  0.60000000  0.13051260  1
  Ta  Ta30  1  0.00000000  0.60000000  0.33051260  1
  Ta  Ta30  1  0.00000000  0.60000000  0.53051260  1
  Ta  Ta30  1  0.00000000  0.60000000  0.73051260  1
  Ta  Ta30  1  0.00000000  0.60000000  0.93051260  1
  Ta  Ta30  1  0.00000000  0.80000000  0.13051260  1
  Ta  Ta30  1  0.00000000  0.80000000  0.33051260  1
  Ta  Ta30  1  0.00000000  0.80000000  0.53051260  1
  Ta  Ta30  1  0.00000000  0.80000000  0.73051260  1
  Ta  Ta30  1  0.00000000  0.80000000  0.93051260  1
  Ta  Ta30  1  0.20000000  0.00000000  0.13051260  1
  Ta  Ta30  1  0.20000000  0.00000000  0.33051260  1
  Ta  Ta30  1  0.20000000  0.00000000  0.53051260  1
  Ta  Ta30  1  0.20000000  0.00000000  0.73051260  1
  Ta  Ta30  1  0.20000000  0.00000000  0.93051260  1
  Ta  Ta30  1  0.20000000  0.20000000  0.13051260  1
  Ta  Ta30  1  0.20000000  0.20000000  0.33051260  1
  Ta  Ta30  1  0.20000000  0.20000000  0.53051260  1
  Ta  Ta30  1  0.20000000  0.20000000  0.73051260  1
  Ta  Ta30  1  0.20000000  0.20000000  0.93051260  1
  Ta  Ta30  1  0.20000000  0.40000000  0.13051260  1
  Ta  Ta30  1  0.20000000  0.40000000  0.33051260  1
  Ta  Ta30  1  0.20000000  0.40000000  0.53051260  1
  Ta  Ta30  1  0.20000000  0.40000000  0.73051260  1
  Ta  Ta30  1  0.20000000  0.40000000  0.93051260  1
  Ta  Ta30  1  0.20000000  0.60000000  0.13051260  1
  Ta  Ta30  1  0.20000000  0.60000000  0.33051260  1
  Ta  Ta30  1  0.20000000  0.60000000  0.53051260  1
  Ta  Ta30  1  0.20000000  0.60000000  0.73051260  1
  Ta  Ta30  1  0.20000000  0.60000000  0.93051260  1
  Ta  Ta30  1  0.20000000  0.80000000  0.13051260  1
  Ta  Ta30  1  0.20000000  0.80000000  0.33051260  1
  Ta  Ta30  1  0.20000000  0.80000000  0.53051260  1
  Ta  Ta30  1  0.20000000  0.80000000  0.73051260  1
  Ta  Ta30  1  0.20000000  0.80000000  0.93051260  1
  Ta  Ta30  1  0.40000000  0.00000000  0.13051260  1
  Ta  Ta30  1  0.40000000  0.00000000  0.33051260  1
  Ta  Ta30  1  0.40000000  0.00000000  0.53051260  1
  Ta  Ta30  1  0.40000000  0.00000000  0.73051260  1
  Ta  Ta30  1  0.40000000  0.00000000  0.93051260  1
  Ta  Ta30  1  0.40000000  0.20000000  0.13051260  1
  Ta  Ta30  1  0.40000000  0.20000000  0.33051260  1
  Ta  Ta30  1  0.40000000  0.20000000  0.53051260  1
  Ta  Ta30  1  0.40000000  0.20000000  0.73051260  1
  Ta  Ta30  1  0.40000000  0.20000000  0.93051260  1
  Ta  Ta30  1  0.40000000  0.40000000  0.13051260  1
  Ta  Ta30  1  0.40000000  0.40000000  0.33051260  1
  Ta  Ta30  1  0.40000000  0.40000000  0.53051260  1
  Ta  Ta30  1  0.40000000  0.40000000  0.73051260  1
  Ta  Ta30  1  0.40000000  0.40000000  0.93051260  1
  Ta  Ta30  1  0.40000000  0.60000000  0.13051260  1
  Ta  Ta30  1  0.40000000  0.60000000  0.33051260  1
  Ta  Ta30  1  0.40000000  0.60000000  0.53051260  1
  Ta  Ta30  1  0.40000000  0.60000000  0.73051260  1
  Ta  Ta30  1  0.40000000  0.60000000  0.93051260  1
  Ta  Ta30  1  0.40000000  0.80000000  0.13051260  1
  Ta  Ta30  1  0.40000000  0.80000000  0.33051260  1
  Ta  Ta30  1  0.40000000  0.80000000  0.53051260  1
  Ta  Ta30  1  0.40000000  0.80000000  0.73051260  1
  Ta  Ta30  1  0.40000000  0.80000000  0.93051260  1
  Ta  Ta30  1  0.60000000  0.00000000  0.13051260  1
  Ta  Ta30  1  0.60000000  0.00000000  0.33051260  1
  Ta  Ta30  1  0.60000000  0.00000000  0.53051260  1
  Ta  Ta30  1  0.60000000  0.00000000  0.73051260  1
  Ta  Ta30  1  0.60000000  0.00000000  0.93051260  1
  Ta  Ta30  1  0.60000000  0.20000000  0.13051260  1
  Ta  Ta30  1  0.60000000  0.20000000  0.33051260  1
  Ta  Ta30  1  0.60000000  0.20000000  0.53051260  1
  Ta  Ta30  1  0.60000000  0.20000000  0.73051260  1
  Ta  Ta30  1  0.60000000  0.20000000  0.93051260  1
  Ta  Ta30  1  0.60000000  0.40000000  0.13051260  1
  Ta  Ta30  1  0.60000000  0.40000000  0.33051260  1
  Ta  Ta30  1  0.60000000  0.40000000  0.53051260  1
  Ta  Ta30  1  0.60000000  0.40000000  0.73051260  1
  Ta  Ta30  1  0.60000000  0.40000000  0.93051260  1
  Ta  Ta30  1  0.60000000  0.60000000  0.13051260  1
  Ta  Ta30  1  0.60000000  0.60000000  0.33051260  1
  Ta  Ta30  1  0.60000000  0.60000000  0.53051260  1
  Ta  Ta30  1  0.60000000  0.60000000  0.73051260  1
  Ta  Ta30  1  0.60000000  0.60000000  0.93051260  1
  Ta  Ta30  1  0.60000000  0.80000000  0.13051260  1
  Ta  Ta30  1  0.60000000  0.80000000  0.33051260  1
  Ta  Ta30  1  0.60000000  0.80000000  0.53051260  1
  Ta  Ta30  1  0.60000000  0.80000000  0.73051260  1
  Ta  Ta30  1  0.60000000  0.80000000  0.93051260  1
  Ta  Ta30  1  0.80000000  0.00000000  0.13051260  1
  Ta  Ta30  1  0.80000000  0.00000000  0.33051260  1
  Ta  Ta30  1  0.80000000  0.00000000  0.53051260  1
  Ta  Ta30  1  0.80000000  0.00000000  0.73051260  1
  Ta  Ta30  1  0.80000000  0.00000000  0.93051260  1
  Ta  Ta30  1  0.80000000  0.20000000  0.13051260  1
  Ta  Ta30  1  0.80000000  0.20000000  0.33051260  1
  Ta  Ta30  1  0.80000000  0.20000000  0.53051260  1
  Ta  Ta30  1  0.80000000  0.20000000  0.73051260  1
  Ta  Ta30  1  0.80000000  0.20000000  0.93051260  1
  Ta  Ta30  1  0.80000000  0.40000000  0.13051260  1
  Ta  Ta30  1  0.80000000  0.40000000  0.33051260  1
  Ta  Ta30  1  0.80000000  0.40000000  0.53051260  1
  Ta  Ta30  1  0.80000000  0.40000000  0.73051260  1
  Ta  Ta30  1  0.80000000  0.40000000  0.93051260  1
  Ta  Ta30  1  0.80000000  0.60000000  0.13051260  1
  Ta  Ta30  1  0.80000000  0.60000000  0.33051260  1
  Ta  Ta30  1  0.80000000  0.60000000  0.53051260  1
  Ta  Ta30  1  0.80000000  0.60000000  0.73051260  1
  Ta  Ta30  1  0.80000000  0.60000000  0.93051260  1
  Ta  Ta30  1  0.80000000  0.80000000  0.13051260  1
  Ta  Ta30  1  0.80000000  0.80000000  0.33051260  1
  Ta  Ta30  1  0.80000000  0.80000000  0.53051260  1
  Ta  Ta30  1  0.80000000  0.80000000  0.73051260  1
  Ta  Ta30  1  0.80000000  0.80000000  0.93051260  1
  Ta  Ta31  1  0.00000000  0.00000000  0.09007400  1
  Ta  Ta31  1  0.00000000  0.00000000  0.29007400  1
  Ta  Ta31  1  0.00000000  0.00000000  0.49007400  1
  Ta  Ta31  1  0.00000000  0.00000000  0.69007400  1
  Ta  Ta31  1  0.00000000  0.00000000  0.89007400  1
  Ta  Ta31  1  0.00000000  0.20000000  0.09007400  1
  Ta  Ta31  1  0.00000000  0.20000000  0.29007400  1
  Ta  Ta31  1  0.00000000  0.20000000  0.49007400  1
  Ta  Ta31  1  0.00000000  0.20000000  0.69007400  1
  Ta  Ta31  1  0.00000000  0.20000000  0.89007400  1
  Ta  Ta31  1  0.00000000  0.40000000  0.09007400  1
  Ta  Ta31  1  0.00000000  0.40000000  0.29007400  1
  Ta  Ta31  1  0.00000000  0.40000000  0.49007400  1
  Ta  Ta31  1  0.00000000  0.40000000  0.69007400  1
  Ta  Ta31  1  0.00000000  0.40000000  0.89007400  1
  Ta  Ta31  1  0.00000000  0.60000000  0.09007400  1
  Ta  Ta31  1  0.00000000  0.60000000  0.29007400  1
  Ta  Ta31  1  0.00000000  0.60000000  0.49007400  1
  Ta  Ta31  1  0.00000000  0.60000000  0.69007400  1
  Ta  Ta31  1  0.00000000  0.60000000  0.89007400  1
  Ta  Ta31  1  0.00000000  0.80000000  0.09007400  1
  Ta  Ta31  1  0.00000000  0.80000000  0.29007400  1
  Ta  Ta31  1  0.00000000  0.80000000  0.49007400  1
  Ta  Ta31  1  0.00000000  0.80000000  0.69007400  1
  Ta  Ta31  1  0.00000000  0.80000000  0.89007400  1
  Ta  Ta31  1  0.20000000  0.00000000  0.09007400  1
  Ta  Ta31  1  0.20000000  0.00000000  0.29007400  1
  Ta  Ta31  1  0.20000000  0.00000000  0.49007400  1
  Ta  Ta31  1  0.20000000  0.00000000  0.69007400  1
  Ta  Ta31  1  0.20000000  0.00000000  0.89007400  1
  Ta  Ta31  1  0.20000000  0.20000000  0.09007400  1
  Ta  Ta31  1  0.20000000  0.20000000  0.29007400  1
  Ta  Ta31  1  0.20000000  0.20000000  0.49007400  1
  Ta  Ta31  1  0.20000000  0.20000000  0.69007400  1
  Ta  Ta31  1  0.20000000  0.20000000  0.89007400  1
  Ta  Ta31  1  0.20000000  0.40000000  0.09007400  1
  Ta  Ta31  1  0.20000000  0.40000000  0.29007400  1
  Ta  Ta31  1  0.20000000  0.40000000  0.49007400  1
  Ta  Ta31  1  0.20000000  0.40000000  0.69007400  1
  Ta  Ta31  1  0.20000000  0.40000000  0.89007400  1
  Ta  Ta31  1  0.20000000  0.60000000  0.09007400  1
  Ta  Ta31  1  0.20000000  0.60000000  0.29007400  1
  Ta  Ta31  1  0.20000000  0.60000000  0.49007400  1
  Ta  Ta31  1  0.20000000  0.60000000  0.69007400  1
  Ta  Ta31  1  0.20000000  0.60000000  0.89007400  1
  Ta  Ta31  1  0.20000000  0.80000000  0.09007400  1
  Ta  Ta31  1  0.20000000  0.80000000  0.29007400  1
  Ta  Ta31  1  0.20000000  0.80000000  0.49007400  1
  Ta  Ta31  1  0.20000000  0.80000000  0.69007400  1
  Ta  Ta31  1  0.20000000  0.80000000  0.89007400  1
  Ta  Ta31  1  0.40000000  0.00000000  0.09007400  1
  Ta  Ta31  1  0.40000000  0.00000000  0.29007400  1
  Ta  Ta31  1  0.40000000  0.00000000  0.49007400  1
  Ta  Ta31  1  0.40000000  0.00000000  0.69007400  1
  Ta  Ta31  1  0.40000000  0.00000000  0.89007400  1
  Ta  Ta31  1  0.40000000  0.20000000  0.09007400  1
  Ta  Ta31  1  0.40000000  0.20000000  0.29007400  1
  Ta  Ta31  1  0.40000000  0.20000000  0.49007400  1
  Ta  Ta31  1  0.40000000  0.20000000  0.69007400  1
  Ta  Ta31  1  0.40000000  0.20000000  0.89007400  1
  Ta  Ta31  1  0.40000000  0.40000000  0.09007400  1
  Ta  Ta31  1  0.40000000  0.40000000  0.29007400  1
  Ta  Ta31  1  0.40000000  0.40000000  0.49007400  1
  Ta  Ta31  1  0.40000000  0.40000000  0.69007400  1
  Ta  Ta31  1  0.40000000  0.40000000  0.89007400  1
  Ta  Ta31  1  0.40000000  0.60000000  0.09007400  1
  Ta  Ta31  1  0.40000000  0.60000000  0.29007400  1
  Ta  Ta31  1  0.40000000  0.60000000  0.49007400  1
  Ta  Ta31  1  0.40000000  0.60000000  0.69007400  1
  Ta  Ta31  1  0.40000000  0.60000000  0.89007400  1
  Ta  Ta31  1  0.40000000  0.80000000  0.09007400  1
  Ta  Ta31  1  0.40000000  0.80000000  0.29007400  1
  Ta  Ta31  1  0.40000000  0.80000000  0.49007400  1
  Ta  Ta31  1  0.40000000  0.80000000  0.69007400  1
  Ta  Ta31  1  0.40000000  0.80000000  0.89007400  1
  Ta  Ta31  1  0.60000000  0.00000000  0.09007400  1
  Ta  Ta31  1  0.60000000  0.00000000  0.29007400  1
  Ta  Ta31  1  0.60000000  0.00000000  0.49007400  1
  Ta  Ta31  1  0.60000000  0.00000000  0.69007400  1
  Ta  Ta31  1  0.60000000  0.00000000  0.89007400  1
  Ta  Ta31  1  0.60000000  0.20000000  0.09007400  1
  Ta  Ta31  1  0.60000000  0.20000000  0.29007400  1
  Ta  Ta31  1  0.60000000  0.20000000  0.49007400  1
  Ta  Ta31  1  0.60000000  0.20000000  0.69007400  1
  Ta  Ta31  1  0.60000000  0.20000000  0.89007400  1
  Ta  Ta31  1  0.60000000  0.40000000  0.09007400  1
  Ta  Ta31  1  0.60000000  0.40000000  0.29007400  1
  Ta  Ta31  1  0.60000000  0.40000000  0.49007400  1
  Ta  Ta31  1  0.60000000  0.40000000  0.69007400  1
  Ta  Ta31  1  0.60000000  0.40000000  0.89007400  1
  Ta  Ta31  1  0.60000000  0.60000000  0.09007400  1
  Ta  Ta31  1  0.60000000  0.60000000  0.29007400  1
  Ta  Ta31  1  0.60000000  0.60000000  0.49007400  1
  Ta  Ta31  1  0.60000000  0.60000000  0.69007400  1
  Ta  Ta31  1  0.60000000  0.60000000  0.89007400  1
  Ta  Ta31  1  0.60000000  0.80000000  0.09007400  1
  Ta  Ta31  1  0.60000000  0.80000000  0.29007400  1
  Ta  Ta31  1  0.60000000  0.80000000  0.49007400  1
  Ta  Ta31  1  0.60000000  0.80000000  0.69007400  1
  Ta  Ta31  1  0.60000000  0.80000000  0.89007400  1
  Ta  Ta31  1  0.80000000  0.00000000  0.09007400  1
  Ta  Ta31  1  0.80000000  0.00000000  0.29007400  1
  Ta  Ta31  1  0.80000000  0.00000000  0.49007400  1
  Ta  Ta31  1  0.80000000  0.00000000  0.69007400  1
  Ta  Ta31  1  0.80000000  0.00000000  0.89007400  1
  Ta  Ta31  1  0.80000000  0.20000000  0.09007400  1
  Ta  Ta31  1  0.80000000  0.20000000  0.29007400  1
  Ta  Ta31  1  0.80000000  0.20000000  0.49007400  1
  Ta  Ta31  1  0.80000000  0.20000000  0.69007400  1
  Ta  Ta31  1  0.80000000  0.20000000  0.89007400  1
  Ta  Ta31  1  0.80000000  0.40000000  0.09007400  1
  Ta  Ta31  1  0.80000000  0.40000000  0.29007400  1
  Ta  Ta31  1  0.80000000  0.40000000  0.49007400  1
  Ta  Ta31  1  0.80000000  0.40000000  0.69007400  1
  Ta  Ta31  1  0.80000000  0.40000000  0.89007400  1
  Ta  Ta31  1  0.80000000  0.60000000  0.09007400  1
  Ta  Ta31  1  0.80000000  0.60000000  0.29007400  1
  Ta  Ta31  1  0.80000000  0.60000000  0.49007400  1
  Ta  Ta31  1  0.80000000  0.60000000  0.69007400  1
  Ta  Ta31  1  0.80000000  0.60000000  0.89007400  1
  Ta  Ta31  1  0.80000000  0.80000000  0.09007400  1
  Ta  Ta31  1  0.80000000  0.80000000  0.29007400  1
  Ta  Ta31  1  0.80000000  0.80000000  0.49007400  1
  Ta  Ta31  1  0.80000000  0.80000000  0.69007400  1
  Ta  Ta31  1  0.80000000  0.80000000  0.89007400  1
  Ta  Ta32  1  0.00000000  0.00000000  0.10992600  1
  Ta  Ta32  1  0.00000000  0.00000000  0.30992600  1
  Ta  Ta32  1  0.00000000  0.00000000  0.50992600  1
  Ta  Ta32  1  0.00000000  0.00000000  0.70992600  1
  Ta  Ta32  1  0.00000000  0.00000000  0.90992600  1
  Ta  Ta32  1  0.00000000  0.20000000  0.10992600  1
  Ta  Ta32  1  0.00000000  0.20000000  0.30992600  1
  Ta  Ta32  1  0.00000000  0.20000000  0.50992600  1
  Ta  Ta32  1  0.00000000  0.20000000  0.70992600  1
  Ta  Ta32  1  0.00000000  0.20000000  0.90992600  1
  Ta  Ta32  1  0.00000000  0.40000000  0.10992600  1
  Ta  Ta32  1  0.00000000  0.40000000  0.30992600  1
  Ta  Ta32  1  0.00000000  0.40000000  0.50992600  1
  Ta  Ta32  1  0.00000000  0.40000000  0.70992600  1
  Ta  Ta32  1  0.00000000  0.40000000  0.90992600  1
  Ta  Ta32  1  0.00000000  0.60000000  0.10992600  1
  Ta  Ta32  1  0.00000000  0.60000000  0.30992600  1
  Ta  Ta32  1  0.00000000  0.60000000  0.50992600  1
  Ta  Ta32  1  0.00000000  0.60000000  0.70992600  1
  Ta  Ta32  1  0.00000000  0.60000000  0.90992600  1
  Ta  Ta32  1  0.00000000  0.80000000  0.10992600  1
  Ta  Ta32  1  0.00000000  0.80000000  0.30992600  1
  Ta  Ta32  1  0.00000000  0.80000000  0.50992600  1
  Ta  Ta32  1  0.00000000  0.80000000  0.70992600  1
  Ta  Ta32  1  0.00000000  0.80000000  0.90992600  1
  Ta  Ta32  1  0.20000000  0.00000000  0.10992600  1
  Ta  Ta32  1  0.20000000  0.00000000  0.30992600  1
  Ta  Ta32  1  0.20000000  0.00000000  0.50992600  1
  Ta  Ta32  1  0.20000000  0.00000000  0.70992600  1
  Ta  Ta32  1  0.20000000  0.00000000  0.90992600  1
  Ta  Ta32  1  0.20000000  0.20000000  0.10992600  1
  Ta  Ta32  1  0.20000000  0.20000000  0.30992600  1
  Ta  Ta32  1  0.20000000  0.20000000  0.50992600  1
  Ta  Ta32  1  0.20000000  0.20000000  0.70992600  1
  Ta  Ta32  1  0.20000000  0.20000000  0.90992600  1
  Ta  Ta32  1  0.20000000  0.40000000  0.10992600  1
  Ta  Ta32  1  0.20000000  0.40000000  0.30992600  1
  Ta  Ta32  1  0.20000000  0.40000000  0.50992600  1
  Ta  Ta32  1  0.20000000  0.40000000  0.70992600  1
  Ta  Ta32  1  0.20000000  0.40000000  0.90992600  1
  Ta  Ta32  1  0.20000000  0.60000000  0.10992600  1
  Ta  Ta32  1  0.20000000  0.60000000  0.30992600  1
  Ta  Ta32  1  0.20000000  0.60000000  0.50992600  1
  Ta  Ta32  1  0.20000000  0.60000000  0.70992600  1
  Ta  Ta32  1  0.20000000  0.60000000  0.90992600  1
  Ta  Ta32  1  0.20000000  0.80000000  0.10992600  1
  Ta  Ta32  1  0.20000000  0.80000000  0.30992600  1
  Ta  Ta32  1  0.20000000  0.80000000  0.50992600  1
  Ta  Ta32  1  0.20000000  0.80000000  0.70992600  1
  Ta  Ta32  1  0.20000000  0.80000000  0.90992600  1
  Ta  Ta32  1  0.40000000  0.00000000  0.10992600  1
  Ta  Ta32  1  0.40000000  0.00000000  0.30992600  1
  Ta  Ta32  1  0.40000000  0.00000000  0.50992600  1
  Ta  Ta32  1  0.40000000  0.00000000  0.70992600  1
  Ta  Ta32  1  0.40000000  0.00000000  0.90992600  1
  Ta  Ta32  1  0.40000000  0.20000000  0.10992600  1
  Ta  Ta32  1  0.40000000  0.20000000  0.30992600  1
  Ta  Ta32  1  0.40000000  0.20000000  0.50992600  1
  Ta  Ta32  1  0.40000000  0.20000000  0.70992600  1
  Ta  Ta32  1  0.40000000  0.20000000  0.90992600  1
  Ta  Ta32  1  0.40000000  0.40000000  0.10992600  1
  Ta  Ta32  1  0.40000000  0.40000000  0.30992600  1
  Ta  Ta32  1  0.40000000  0.40000000  0.50992600  1
  Ta  Ta32  1  0.40000000  0.40000000  0.70992600  1
  Ta  Ta32  1  0.40000000  0.40000000  0.90992600  1
  Ta  Ta32  1  0.40000000  0.60000000  0.10992600  1
  Ta  Ta32  1  0.40000000  0.60000000  0.30992600  1
  Ta  Ta32  1  0.40000000  0.60000000  0.50992600  1
  Ta  Ta32  1  0.40000000  0.60000000  0.70992600  1
  Ta  Ta32  1  0.40000000  0.60000000  0.90992600  1
  Ta  Ta32  1  0.40000000  0.80000000  0.10992600  1
  Ta  Ta32  1  0.40000000  0.80000000  0.30992600  1
  Ta  Ta32  1  0.40000000  0.80000000  0.50992600  1
  Ta  Ta32  1  0.40000000  0.80000000  0.70992600  1
  Ta  Ta32  1  0.40000000  0.80000000  0.90992600  1
  Ta  Ta32  1  0.60000000  0.00000000  0.10992600  1
  Ta  Ta32  1  0.60000000  0.00000000  0.30992600  1
  Ta  Ta32  1  0.60000000  0.00000000  0.50992600  1
  Ta  Ta32  1  0.60000000  0.00000000  0.70992600  1
  Ta  Ta32  1  0.60000000  0.00000000  0.90992600  1
  Ta  Ta32  1  0.60000000  0.20000000  0.10992600  1
  Ta  Ta32  1  0.60000000  0.20000000  0.30992600  1
  Ta  Ta32  1  0.60000000  0.20000000  0.50992600  1
  Ta  Ta32  1  0.60000000  0.20000000  0.70992600  1
  Ta  Ta32  1  0.60000000  0.20000000  0.90992600  1
  Ta  Ta32  1  0.60000000  0.40000000  0.10992600  1
  Ta  Ta32  1  0.60000000  0.40000000  0.30992600  1
  Ta  Ta32  1  0.60000000  0.40000000  0.50992600  1
  Ta  Ta32  1  0.60000000  0.40000000  0.70992600  1
  Ta  Ta32  1  0.60000000  0.40000000  0.90992600  1
  Ta  Ta32  1  0.60000000  0.60000000  0.10992600  1
  Ta  Ta32  1  0.60000000  0.60000000  0.30992600  1
  Ta  Ta32  1  0.60000000  0.60000000  0.50992600  1
  Ta  Ta32  1  0.60000000  0.60000000  0.70992600  1
  Ta  Ta32  1  0.60000000  0.60000000  0.90992600  1
  Ta  Ta32  1  0.60000000  0.80000000  0.10992600  1
  Ta  Ta32  1  0.60000000  0.80000000  0.30992600  1
  Ta  Ta32  1  0.60000000  0.80000000  0.50992600  1
  Ta  Ta32  1  0.60000000  0.80000000  0.70992600  1
  Ta  Ta32  1  0.60000000  0.80000000  0.90992600  1
  Ta  Ta32  1  0.80000000  0.00000000  0.10992600  1
  Ta  Ta32  1  0.80000000  0.00000000  0.30992600  1
  Ta  Ta32  1  0.80000000  0.00000000  0.50992600  1
  Ta  Ta32  1  0.80000000  0.00000000  0.70992600  1
  Ta  Ta32  1  0.80000000  0.00000000  0.90992600  1
  Ta  Ta32  1  0.80000000  0.20000000  0.10992600  1
  Ta  Ta32  1  0.80000000  0.20000000  0.30992600  1
  Ta  Ta32  1  0.80000000  0.20000000  0.50992600  1
  Ta  Ta32  1  0.80000000  0.20000000  0.70992600  1
  Ta  Ta32  1  0.80000000  0.20000000  0.90992600  1
  Ta  Ta32  1  0.80000000  0.40000000  0.10992600  1
  Ta  Ta32  1  0.80000000  0.40000000  0.30992600  1
  Ta  Ta32  1  0.80000000  0.40000000  0.50992600  1
  Ta  Ta32  1  0.80000000  0.40000000  0.70992600  1
  Ta  Ta32  1  0.80000000  0.40000000  0.90992600  1
  Ta  Ta32  1  0.80000000  0.60000000  0.10992600  1
  Ta  Ta32  1  0.80000000  0.60000000  0.30992600  1
  Ta  Ta32  1  0.80000000  0.60000000  0.50992600  1
  Ta  Ta32  1  0.80000000  0.60000000  0.70992600  1
  Ta  Ta32  1  0.80000000  0.60000000  0.90992600  1
  Ta  Ta32  1  0.80000000  0.80000000  0.10992600  1
  Ta  Ta32  1  0.80000000  0.80000000  0.30992600  1
  Ta  Ta32  1  0.80000000  0.80000000  0.50992600  1
  Ta  Ta32  1  0.80000000  0.80000000  0.70992600  1
  Ta  Ta32  1  0.80000000  0.80000000  0.90992600  1
  Ta  Ta33  1  0.06666667  0.13333333  0.16655333  1
  Ta  Ta33  1  0.06666667  0.13333333  0.36655333  1
  Ta  Ta33  1  0.06666667  0.13333333  0.56655333  1
  Ta  Ta33  1  0.06666667  0.13333333  0.76655333  1
  Ta  Ta33  1  0.06666667  0.13333333  0.96655333  1
  Ta  Ta33  1  0.06666667  0.33333333  0.16655333  1
  Ta  Ta33  1  0.06666667  0.33333333  0.36655333  1
  Ta  Ta33  1  0.06666667  0.33333333  0.56655333  1
  Ta  Ta33  1  0.06666667  0.33333333  0.76655333  1
  Ta  Ta33  1  0.06666667  0.33333333  0.96655333  1
  Ta  Ta33  1  0.06666667  0.53333333  0.16655333  1
  Ta  Ta33  1  0.06666667  0.53333333  0.36655333  1
  Ta  Ta33  1  0.06666667  0.53333333  0.56655333  1
  Ta  Ta33  1  0.06666667  0.53333333  0.76655333  1
  Ta  Ta33  1  0.06666667  0.53333333  0.96655333  1
  Ta  Ta33  1  0.06666667  0.73333333  0.16655333  1
  Ta  Ta33  1  0.06666667  0.73333333  0.36655333  1
  Ta  Ta33  1  0.06666667  0.73333333  0.56655333  1
  Ta  Ta33  1  0.06666667  0.73333333  0.76655333  1
  Ta  Ta33  1  0.06666667  0.73333333  0.96655333  1
  Ta  Ta33  1  0.06666667  0.93333333  0.16655333  1
  Ta  Ta33  1  0.06666667  0.93333333  0.36655333  1
  Ta  Ta33  1  0.06666667  0.93333333  0.56655333  1
  Ta  Ta33  1  0.06666667  0.93333333  0.76655333  1
  Ta  Ta33  1  0.06666667  0.93333333  0.96655333  1
  Ta  Ta33  1  0.26666667  0.13333333  0.16655333  1
  Ta  Ta33  1  0.26666667  0.13333333  0.36655333  1
  Ta  Ta33  1  0.26666667  0.13333333  0.56655333  1
  Ta  Ta33  1  0.26666667  0.13333333  0.76655333  1
  Ta  Ta33  1  0.26666667  0.13333333  0.96655333  1
  Ta  Ta33  1  0.26666667  0.33333333  0.16655333  1
  Ta  Ta33  1  0.26666667  0.33333333  0.36655333  1
  Ta  Ta33  1  0.26666667  0.33333333  0.56655333  1
  Ta  Ta33  1  0.26666667  0.33333333  0.76655333  1
  Ta  Ta33  1  0.26666667  0.33333333  0.96655333  1
  Ta  Ta33  1  0.26666667  0.53333333  0.16655333  1
  Ta  Ta33  1  0.26666667  0.53333333  0.36655333  1
  Ta  Ta33  1  0.26666667  0.53333333  0.56655333  1
  Ta  Ta33  1  0.26666667  0.53333333  0.76655333  1
  Ta  Ta33  1  0.26666667  0.53333333  0.96655333  1
  Ta  Ta33  1  0.26666667  0.73333333  0.16655333  1
  Ta  Ta33  1  0.26666667  0.73333333  0.36655333  1
  Ta  Ta33  1  0.26666667  0.73333333  0.56655333  1
  Ta  Ta33  1  0.26666667  0.73333333  0.76655333  1
  Ta  Ta33  1  0.26666667  0.73333333  0.96655333  1
  Ta  Ta33  1  0.26666667  0.93333333  0.16655333  1
  Ta  Ta33  1  0.26666667  0.93333333  0.36655333  1
  Ta  Ta33  1  0.26666667  0.93333333  0.56655333  1
  Ta  Ta33  1  0.26666667  0.93333333  0.76655333  1
  Ta  Ta33  1  0.26666667  0.93333333  0.96655333  1
  Ta  Ta33  1  0.46666667  0.13333333  0.16655333  1
  Ta  Ta33  1  0.46666667  0.13333333  0.36655333  1
  Ta  Ta33  1  0.46666667  0.13333333  0.56655333  1
  Ta  Ta33  1  0.46666667  0.13333333  0.76655333  1
  Ta  Ta33  1  0.46666667  0.13333333  0.96655333  1
  Ta  Ta33  1  0.46666667  0.33333333  0.16655333  1
  Ta  Ta33  1  0.46666667  0.33333333  0.36655333  1
  Ta  Ta33  1  0.46666667  0.33333333  0.56655333  1
  Ta  Ta33  1  0.46666667  0.33333333  0.76655333  1
  Ta  Ta33  1  0.46666667  0.33333333  0.96655333  1
  Ta  Ta33  1  0.46666667  0.53333333  0.16655333  1
  Ta  Ta33  1  0.46666667  0.53333333  0.36655333  1
  Ta  Ta33  1  0.46666667  0.53333333  0.56655333  1
  Ta  Ta33  1  0.46666667  0.53333333  0.76655333  1
  Ta  Ta33  1  0.46666667  0.53333333  0.96655333  1
  Ta  Ta33  1  0.46666667  0.73333333  0.16655333  1
  Ta  Ta33  1  0.46666667  0.73333333  0.36655333  1
  Ta  Ta33  1  0.46666667  0.73333333  0.56655333  1
  Ta  Ta33  1  0.46666667  0.73333333  0.76655333  1
  Ta  Ta33  1  0.46666667  0.73333333  0.96655333  1
  Ta  Ta33  1  0.46666667  0.93333333  0.16655333  1
  Ta  Ta33  1  0.46666667  0.93333333  0.36655333  1
  Ta  Ta33  1  0.46666667  0.93333333  0.56655333  1
  Ta  Ta33  1  0.46666667  0.93333333  0.76655333  1
  Ta  Ta33  1  0.46666667  0.93333333  0.96655333  1
  Ta  Ta33  1  0.66666667  0.13333333  0.16655333  1
  Ta  Ta33  1  0.66666667  0.13333333  0.36655333  1
  Ta  Ta33  1  0.66666667  0.13333333  0.56655333  1
  Ta  Ta33  1  0.66666667  0.13333333  0.76655333  1
  Ta  Ta33  1  0.66666667  0.13333333  0.96655333  1
  Ta  Ta33  1  0.66666667  0.33333333  0.16655333  1
  Ta  Ta33  1  0.66666667  0.33333333  0.36655333  1
  Ta  Ta33  1  0.66666667  0.33333333  0.56655333  1
  Ta  Ta33  1  0.66666667  0.33333333  0.76655333  1
  Ta  Ta33  1  0.66666667  0.33333333  0.96655333  1
  Ta  Ta33  1  0.66666667  0.53333333  0.16655333  1
  Ta  Ta33  1  0.66666667  0.53333333  0.36655333  1
  Ta  Ta33  1  0.66666667  0.53333333  0.56655333  1
  Ta  Ta33  1  0.66666667  0.53333333  0.76655333  1
  Ta  Ta33  1  0.66666667  0.53333333  0.96655333  1
  Ta  Ta33  1  0.66666667  0.73333333  0.16655333  1
  Ta  Ta33  1  0.66666667  0.73333333  0.36655333  1
  Ta  Ta33  1  0.66666667  0.73333333  0.56655333  1
  Ta  Ta33  1  0.66666667  0.73333333  0.76655333  1
  Ta  Ta33  1  0.66666667  0.73333333  0.96655333  1
  Ta  Ta33  1  0.66666667  0.93333333  0.16655333  1
  Ta  Ta33  1  0.66666667  0.93333333  0.36655333  1
  Ta  Ta33  1  0.66666667  0.93333333  0.56655333  1
  Ta  Ta33  1  0.66666667  0.93333333  0.76655333  1
  Ta  Ta33  1  0.66666667  0.93333333  0.96655333  1
  Ta  Ta33  1  0.86666667  0.13333333  0.16655333  1
  Ta  Ta33  1  0.86666667  0.13333333  0.36655333  1
  Ta  Ta33  1  0.86666667  0.13333333  0.56655333  1
  Ta  Ta33  1  0.86666667  0.13333333  0.76655333  1
  Ta  Ta33  1  0.86666667  0.13333333  0.96655333  1
  Ta  Ta33  1  0.86666667  0.33333333  0.16655333  1
  Ta  Ta33  1  0.86666667  0.33333333  0.36655333  1
  Ta  Ta33  1  0.86666667  0.33333333  0.56655333  1
  Ta  Ta33  1  0.86666667  0.33333333  0.76655333  1
  Ta  Ta33  1  0.86666667  0.33333333  0.96655333  1
  Ta  Ta33  1  0.86666667  0.53333333  0.16655333  1
  Ta  Ta33  1  0.86666667  0.53333333  0.36655333  1
  Ta  Ta33  1  0.86666667  0.53333333  0.56655333  1
  Ta  Ta33  1  0.86666667  0.53333333  0.76655333  1
  Ta  Ta33  1  0.86666667  0.53333333  0.96655333  1
  Ta  Ta33  1  0.86666667  0.73333333  0.16655333  1
  Ta  Ta33  1  0.86666667  0.73333333  0.36655333  1
  Ta  Ta33  1  0.86666667  0.73333333  0.56655333  1
  Ta  Ta33  1  0.86666667  0.73333333  0.76655333  1
  Ta  Ta33  1  0.86666667  0.73333333  0.96655333  1
  Ta  Ta33  1  0.86666667  0.93333333  0.16655333  1
  Ta  Ta33  1  0.86666667  0.93333333  0.36655333  1
  Ta  Ta33  1  0.86666667  0.93333333  0.56655333  1
  Ta  Ta33  1  0.86666667  0.93333333  0.76655333  1
  Ta  Ta33  1  0.86666667  0.93333333  0.96655333  1
  Ta  Ta34  1  0.00000000  0.00000000  0.16678000  1
  Ta  Ta34  1  0.00000000  0.00000000  0.36678000  1
  Ta  Ta34  1  0.00000000  0.00000000  0.56678000  1
  Ta  Ta34  1  0.00000000  0.00000000  0.76678000  1
  Ta  Ta34  1  0.00000000  0.00000000  0.96678000  1
  Ta  Ta34  1  0.00000000  0.20000000  0.16678000  1
  Ta  Ta34  1  0.00000000  0.20000000  0.36678000  1
  Ta  Ta34  1  0.00000000  0.20000000  0.56678000  1
  Ta  Ta34  1  0.00000000  0.20000000  0.76678000  1
  Ta  Ta34  1  0.00000000  0.20000000  0.96678000  1
  Ta  Ta34  1  0.00000000  0.40000000  0.16678000  1
  Ta  Ta34  1  0.00000000  0.40000000  0.36678000  1
  Ta  Ta34  1  0.00000000  0.40000000  0.56678000  1
  Ta  Ta34  1  0.00000000  0.40000000  0.76678000  1
  Ta  Ta34  1  0.00000000  0.40000000  0.96678000  1
  Ta  Ta34  1  0.00000000  0.60000000  0.16678000  1
  Ta  Ta34  1  0.00000000  0.60000000  0.36678000  1
  Ta  Ta34  1  0.00000000  0.60000000  0.56678000  1
  Ta  Ta34  1  0.00000000  0.60000000  0.76678000  1
  Ta  Ta34  1  0.00000000  0.60000000  0.96678000  1
  Ta  Ta34  1  0.00000000  0.80000000  0.16678000  1
  Ta  Ta34  1  0.00000000  0.80000000  0.36678000  1
  Ta  Ta34  1  0.00000000  0.80000000  0.56678000  1
  Ta  Ta34  1  0.00000000  0.80000000  0.76678000  1
  Ta  Ta34  1  0.00000000  0.80000000  0.96678000  1
  Ta  Ta34  1  0.20000000  0.00000000  0.16678000  1
  Ta  Ta34  1  0.20000000  0.00000000  0.36678000  1
  Ta  Ta34  1  0.20000000  0.00000000  0.56678000  1
  Ta  Ta34  1  0.20000000  0.00000000  0.76678000  1
  Ta  Ta34  1  0.20000000  0.00000000  0.96678000  1
  Ta  Ta34  1  0.20000000  0.20000000  0.16678000  1
  Ta  Ta34  1  0.20000000  0.20000000  0.36678000  1
  Ta  Ta34  1  0.20000000  0.20000000  0.56678000  1
  Ta  Ta34  1  0.20000000  0.20000000  0.76678000  1
  Ta  Ta34  1  0.20000000  0.20000000  0.96678000  1
  Ta  Ta34  1  0.20000000  0.40000000  0.16678000  1
  Ta  Ta34  1  0.20000000  0.40000000  0.36678000  1
  Ta  Ta34  1  0.20000000  0.40000000  0.56678000  1
  Ta  Ta34  1  0.20000000  0.40000000  0.76678000  1
  Ta  Ta34  1  0.20000000  0.40000000  0.96678000  1
  Ta  Ta34  1  0.20000000  0.60000000  0.16678000  1
  Ta  Ta34  1  0.20000000  0.60000000  0.36678000  1
  Ta  Ta34  1  0.20000000  0.60000000  0.56678000  1
  Ta  Ta34  1  0.20000000  0.60000000  0.76678000  1
  Ta  Ta34  1  0.20000000  0.60000000  0.96678000  1
  Ta  Ta34  1  0.20000000  0.80000000  0.16678000  1
  Ta  Ta34  1  0.20000000  0.80000000  0.36678000  1
  Ta  Ta34  1  0.20000000  0.80000000  0.56678000  1
  Ta  Ta34  1  0.20000000  0.80000000  0.76678000  1
  Ta  Ta34  1  0.20000000  0.80000000  0.96678000  1
  Ta  Ta34  1  0.40000000  0.00000000  0.16678000  1
  Ta  Ta34  1  0.40000000  0.00000000  0.36678000  1
  Ta  Ta34  1  0.40000000  0.00000000  0.56678000  1
  Ta  Ta34  1  0.40000000  0.00000000  0.76678000  1
  Ta  Ta34  1  0.40000000  0.00000000  0.96678000  1
  Ta  Ta34  1  0.40000000  0.20000000  0.16678000  1
  Ta  Ta34  1  0.40000000  0.20000000  0.36678000  1
  Ta  Ta34  1  0.40000000  0.20000000  0.56678000  1
  Ta  Ta34  1  0.40000000  0.20000000  0.76678000  1
  Ta  Ta34  1  0.40000000  0.20000000  0.96678000  1
  Ta  Ta34  1  0.40000000  0.40000000  0.16678000  1
  Ta  Ta34  1  0.40000000  0.40000000  0.36678000  1
  Ta  Ta34  1  0.40000000  0.40000000  0.56678000  1
  Ta  Ta34  1  0.40000000  0.40000000  0.76678000  1
  Ta  Ta34  1  0.40000000  0.40000000  0.96678000  1
  Ta  Ta34  1  0.40000000  0.60000000  0.16678000  1
  Ta  Ta34  1  0.40000000  0.60000000  0.36678000  1
  Ta  Ta34  1  0.40000000  0.60000000  0.56678000  1
  Ta  Ta34  1  0.40000000  0.60000000  0.76678000  1
  Ta  Ta34  1  0.40000000  0.60000000  0.96678000  1
  Ta  Ta34  1  0.40000000  0.80000000  0.16678000  1
  Ta  Ta34  1  0.40000000  0.80000000  0.36678000  1
  Ta  Ta34  1  0.40000000  0.80000000  0.56678000  1
  Ta  Ta34  1  0.40000000  0.80000000  0.76678000  1
  Ta  Ta34  1  0.40000000  0.80000000  0.96678000  1
  Ta  Ta34  1  0.60000000  0.00000000  0.16678000  1
  Ta  Ta34  1  0.60000000  0.00000000  0.36678000  1
  Ta  Ta34  1  0.60000000  0.00000000  0.56678000  1
  Ta  Ta34  1  0.60000000  0.00000000  0.76678000  1
  Ta  Ta34  1  0.60000000  0.00000000  0.96678000  1
  Ta  Ta34  1  0.60000000  0.20000000  0.16678000  1
  Ta  Ta34  1  0.60000000  0.20000000  0.36678000  1
  Ta  Ta34  1  0.60000000  0.20000000  0.56678000  1
  Ta  Ta34  1  0.60000000  0.20000000  0.76678000  1
  Ta  Ta34  1  0.60000000  0.20000000  0.96678000  1
  Ta  Ta34  1  0.60000000  0.40000000  0.16678000  1
  Ta  Ta34  1  0.60000000  0.40000000  0.36678000  1
  Ta  Ta34  1  0.60000000  0.40000000  0.56678000  1
  Ta  Ta34  1  0.60000000  0.40000000  0.76678000  1
  Ta  Ta34  1  0.60000000  0.40000000  0.96678000  1
  Ta  Ta34  1  0.60000000  0.60000000  0.16678000  1
  Ta  Ta34  1  0.60000000  0.60000000  0.36678000  1
  Ta  Ta34  1  0.60000000  0.60000000  0.56678000  1
  Ta  Ta34  1  0.60000000  0.60000000  0.76678000  1
  Ta  Ta34  1  0.60000000  0.60000000  0.96678000  1
  Ta  Ta34  1  0.60000000  0.80000000  0.16678000  1
  Ta  Ta34  1  0.60000000  0.80000000  0.36678000  1
  Ta  Ta34  1  0.60000000  0.80000000  0.56678000  1
  Ta  Ta34  1  0.60000000  0.80000000  0.76678000  1
  Ta  Ta34  1  0.60000000  0.80000000  0.96678000  1
  Ta  Ta34  1  0.80000000  0.00000000  0.16678000  1
  Ta  Ta34  1  0.80000000  0.00000000  0.36678000  1
  Ta  Ta34  1  0.80000000  0.00000000  0.56678000  1
  Ta  Ta34  1  0.80000000  0.00000000  0.76678000  1
  Ta  Ta34  1  0.80000000  0.00000000  0.96678000  1
  Ta  Ta34  1  0.80000000  0.20000000  0.16678000  1
  Ta  Ta34  1  0.80000000  0.20000000  0.36678000  1
  Ta  Ta34  1  0.80000000  0.20000000  0.56678000  1
  Ta  Ta34  1  0.80000000  0.20000000  0.76678000  1
  Ta  Ta34  1  0.80000000  0.20000000  0.96678000  1
  Ta  Ta34  1  0.80000000  0.40000000  0.16678000  1
  Ta  Ta34  1  0.80000000  0.40000000  0.36678000  1
  Ta  Ta34  1  0.80000000  0.40000000  0.56678000  1
  Ta  Ta34  1  0.80000000  0.40000000  0.76678000  1
  Ta  Ta34  1  0.80000000  0.40000000  0.96678000  1
  Ta  Ta34  1  0.80000000  0.60000000  0.16678000  1
  Ta  Ta34  1  0.80000000  0.60000000  0.36678000  1
  Ta  Ta34  1  0.80000000  0.60000000  0.56678000  1
  Ta  Ta34  1  0.80000000  0.60000000  0.76678000  1
  Ta  Ta34  1  0.80000000  0.60000000  0.96678000  1
  Ta  Ta34  1  0.80000000  0.80000000  0.16678000  1
  Ta  Ta34  1  0.80000000  0.80000000  0.36678000  1
  Ta  Ta34  1  0.80000000  0.80000000  0.56678000  1
  Ta  Ta34  1  0.80000000  0.80000000  0.76678000  1
  Ta  Ta34  1  0.80000000  0.80000000  0.96678000  1
  Ta  Ta35  1  0.13333333  0.06666667  0.13615407  1
  Ta  Ta35  1  0.13333333  0.06666667  0.33615407  1
  Ta  Ta35  1  0.13333333  0.06666667  0.53615407  1
  Ta  Ta35  1  0.13333333  0.06666667  0.73615407  1
  Ta  Ta35  1  0.13333333  0.06666667  0.93615407  1
  Ta  Ta35  1  0.13333333  0.26666667  0.13615407  1
  Ta  Ta35  1  0.13333333  0.26666667  0.33615407  1
  Ta  Ta35  1  0.13333333  0.26666667  0.53615407  1
  Ta  Ta35  1  0.13333333  0.26666667  0.73615407  1
  Ta  Ta35  1  0.13333333  0.26666667  0.93615407  1
  Ta  Ta35  1  0.13333333  0.46666667  0.13615407  1
  Ta  Ta35  1  0.13333333  0.46666667  0.33615407  1
  Ta  Ta35  1  0.13333333  0.46666667  0.53615407  1
  Ta  Ta35  1  0.13333333  0.46666667  0.73615407  1
  Ta  Ta35  1  0.13333333  0.46666667  0.93615407  1
  Ta  Ta35  1  0.13333333  0.66666667  0.13615407  1
  Ta  Ta35  1  0.13333333  0.66666667  0.33615407  1
  Ta  Ta35  1  0.13333333  0.66666667  0.53615407  1
  Ta  Ta35  1  0.13333333  0.66666667  0.73615407  1
  Ta  Ta35  1  0.13333333  0.66666667  0.93615407  1
  Ta  Ta35  1  0.13333333  0.86666667  0.13615407  1
  Ta  Ta35  1  0.13333333  0.86666667  0.33615407  1
  Ta  Ta35  1  0.13333333  0.86666667  0.53615407  1
  Ta  Ta35  1  0.13333333  0.86666667  0.73615407  1
  Ta  Ta35  1  0.13333333  0.86666667  0.93615407  1
  Ta  Ta35  1  0.33333333  0.06666667  0.13615407  1
  Ta  Ta35  1  0.33333333  0.06666667  0.33615407  1
  Ta  Ta35  1  0.33333333  0.06666667  0.53615407  1
  Ta  Ta35  1  0.33333333  0.06666667  0.73615407  1
  Ta  Ta35  1  0.33333333  0.06666667  0.93615407  1
  Ta  Ta35  1  0.33333333  0.26666667  0.13615407  1
  Ta  Ta35  1  0.33333333  0.26666667  0.33615407  1
  Ta  Ta35  1  0.33333333  0.26666667  0.53615407  1
  Ta  Ta35  1  0.33333333  0.26666667  0.73615407  1
  Ta  Ta35  1  0.33333333  0.26666667  0.93615407  1
  Ta  Ta35  1  0.33333333  0.46666667  0.13615407  1
  Ta  Ta35  1  0.33333333  0.46666667  0.33615407  1
  Ta  Ta35  1  0.33333333  0.46666667  0.53615407  1
  Ta  Ta35  1  0.33333333  0.46666667  0.73615407  1
  Ta  Ta35  1  0.33333333  0.46666667  0.93615407  1
  Ta  Ta35  1  0.33333333  0.66666667  0.13615407  1
  Ta  Ta35  1  0.33333333  0.66666667  0.33615407  1
  Ta  Ta35  1  0.33333333  0.66666667  0.53615407  1
  Ta  Ta35  1  0.33333333  0.66666667  0.73615407  1
  Ta  Ta35  1  0.33333333  0.66666667  0.93615407  1
  Ta  Ta35  1  0.33333333  0.86666667  0.13615407  1
  Ta  Ta35  1  0.33333333  0.86666667  0.33615407  1
  Ta  Ta35  1  0.33333333  0.86666667  0.53615407  1
  Ta  Ta35  1  0.33333333  0.86666667  0.73615407  1
  Ta  Ta35  1  0.33333333  0.86666667  0.93615407  1
  Ta  Ta35  1  0.53333333  0.06666667  0.13615407  1
  Ta  Ta35  1  0.53333333  0.06666667  0.33615407  1
  Ta  Ta35  1  0.53333333  0.06666667  0.53615407  1
  Ta  Ta35  1  0.53333333  0.06666667  0.73615407  1
  Ta  Ta35  1  0.53333333  0.06666667  0.93615407  1
  Ta  Ta35  1  0.53333333  0.26666667  0.13615407  1
  Ta  Ta35  1  0.53333333  0.26666667  0.33615407  1
  Ta  Ta35  1  0.53333333  0.26666667  0.53615407  1
  Ta  Ta35  1  0.53333333  0.26666667  0.73615407  1
  Ta  Ta35  1  0.53333333  0.26666667  0.93615407  1
  Ta  Ta35  1  0.53333333  0.46666667  0.13615407  1
  Ta  Ta35  1  0.53333333  0.46666667  0.33615407  1
  Ta  Ta35  1  0.53333333  0.46666667  0.53615407  1
  Ta  Ta35  1  0.53333333  0.46666667  0.73615407  1
  Ta  Ta35  1  0.53333333  0.46666667  0.93615407  1
  Ta  Ta35  1  0.53333333  0.66666667  0.13615407  1
  Ta  Ta35  1  0.53333333  0.66666667  0.33615407  1
  Ta  Ta35  1  0.53333333  0.66666667  0.53615407  1
  Ta  Ta35  1  0.53333333  0.66666667  0.73615407  1
  Ta  Ta35  1  0.53333333  0.66666667  0.93615407  1
  Ta  Ta35  1  0.53333333  0.86666667  0.13615407  1
  Ta  Ta35  1  0.53333333  0.86666667  0.33615407  1
  Ta  Ta35  1  0.53333333  0.86666667  0.53615407  1
  Ta  Ta35  1  0.53333333  0.86666667  0.73615407  1
  Ta  Ta35  1  0.53333333  0.86666667  0.93615407  1
  Ta  Ta35  1  0.73333333  0.06666667  0.13615407  1
  Ta  Ta35  1  0.73333333  0.06666667  0.33615407  1
  Ta  Ta35  1  0.73333333  0.06666667  0.53615407  1
  Ta  Ta35  1  0.73333333  0.06666667  0.73615407  1
  Ta  Ta35  1  0.73333333  0.06666667  0.93615407  1
  Ta  Ta35  1  0.73333333  0.26666667  0.13615407  1
  Ta  Ta35  1  0.73333333  0.26666667  0.33615407  1
  Ta  Ta35  1  0.73333333  0.26666667  0.53615407  1
  Ta  Ta35  1  0.73333333  0.26666667  0.73615407  1
  Ta  Ta35  1  0.73333333  0.26666667  0.93615407  1
  Ta  Ta35  1  0.73333333  0.46666667  0.13615407  1
  Ta  Ta35  1  0.73333333  0.46666667  0.33615407  1
  Ta  Ta35  1  0.73333333  0.46666667  0.53615407  1
  Ta  Ta35  1  0.73333333  0.46666667  0.73615407  1
  Ta  Ta35  1  0.73333333  0.46666667  0.93615407  1
  Ta  Ta35  1  0.73333333  0.66666667  0.13615407  1
  Ta  Ta35  1  0.73333333  0.66666667  0.33615407  1
  Ta  Ta35  1  0.73333333  0.66666667  0.53615407  1
  Ta  Ta35  1  0.73333333  0.66666667  0.73615407  1
  Ta  Ta35  1  0.73333333  0.66666667  0.93615407  1
  Ta  Ta35  1  0.73333333  0.86666667  0.13615407  1
  Ta  Ta35  1  0.73333333  0.86666667  0.33615407  1
  Ta  Ta35  1  0.73333333  0.86666667  0.53615407  1
  Ta  Ta35  1  0.73333333  0.86666667  0.73615407  1
  Ta  Ta35  1  0.73333333  0.86666667  0.93615407  1
  Ta  Ta35  1  0.93333333  0.06666667  0.13615407  1
  Ta  Ta35  1  0.93333333  0.06666667  0.33615407  1
  Ta  Ta35  1  0.93333333  0.06666667  0.53615407  1
  Ta  Ta35  1  0.93333333  0.06666667  0.73615407  1
  Ta  Ta35  1  0.93333333  0.06666667  0.93615407  1
  Ta  Ta35  1  0.93333333  0.26666667  0.13615407  1
  Ta  Ta35  1  0.93333333  0.26666667  0.33615407  1
  Ta  Ta35  1  0.93333333  0.26666667  0.53615407  1
  Ta  Ta35  1  0.93333333  0.26666667  0.73615407  1
  Ta  Ta35  1  0.93333333  0.26666667  0.93615407  1
  Ta  Ta35  1  0.93333333  0.46666667  0.13615407  1
  Ta  Ta35  1  0.93333333  0.46666667  0.33615407  1
  Ta  Ta35  1  0.93333333  0.46666667  0.53615407  1
  Ta  Ta35  1  0.93333333  0.46666667  0.73615407  1
  Ta  Ta35  1  0.93333333  0.46666667  0.93615407  1
  Ta  Ta35  1  0.93333333  0.66666667  0.13615407  1
  Ta  Ta35  1  0.93333333  0.66666667  0.33615407  1
  Ta  Ta35  1  0.93333333  0.66666667  0.53615407  1
  Ta  Ta35  1  0.93333333  0.66666667  0.73615407  1
  Ta  Ta35  1  0.93333333  0.66666667  0.93615407  1
  Ta  Ta35  1  0.93333333  0.86666667  0.13615407  1
  Ta  Ta35  1  0.93333333  0.86666667  0.33615407  1
  Ta  Ta35  1  0.93333333  0.86666667  0.53615407  1
  Ta  Ta35  1  0.93333333  0.86666667  0.73615407  1
  Ta  Ta35  1  0.93333333  0.86666667  0.93615407  1
  Ta  Ta36  1  0.13333333  0.06666667  0.19717927  1
  Ta  Ta36  1  0.13333333  0.06666667  0.39717927  1
  Ta  Ta36  1  0.13333333  0.06666667  0.59717927  1
  Ta  Ta36  1  0.13333333  0.06666667  0.79717927  1
  Ta  Ta36  1  0.13333333  0.06666667  0.99717927  1
  Ta  Ta36  1  0.13333333  0.26666667  0.19717927  1
  Ta  Ta36  1  0.13333333  0.26666667  0.39717927  1
  Ta  Ta36  1  0.13333333  0.26666667  0.59717927  1
  Ta  Ta36  1  0.13333333  0.26666667  0.79717927  1
  Ta  Ta36  1  0.13333333  0.26666667  0.99717927  1
  Ta  Ta36  1  0.13333333  0.46666667  0.19717927  1
  Ta  Ta36  1  0.13333333  0.46666667  0.39717927  1
  Ta  Ta36  1  0.13333333  0.46666667  0.59717927  1
  Ta  Ta36  1  0.13333333  0.46666667  0.79717927  1
  Ta  Ta36  1  0.13333333  0.46666667  0.99717927  1
  Ta  Ta36  1  0.13333333  0.66666667  0.19717927  1
  Ta  Ta36  1  0.13333333  0.66666667  0.39717927  1
  Ta  Ta36  1  0.13333333  0.66666667  0.59717927  1
  Ta  Ta36  1  0.13333333  0.66666667  0.79717927  1
  Ta  Ta36  1  0.13333333  0.66666667  0.99717927  1
  Ta  Ta36  1  0.13333333  0.86666667  0.19717927  1
  Ta  Ta36  1  0.13333333  0.86666667  0.39717927  1
  Ta  Ta36  1  0.13333333  0.86666667  0.59717927  1
  Ta  Ta36  1  0.13333333  0.86666667  0.79717927  1
  Ta  Ta36  1  0.13333333  0.86666667  0.99717927  1
  Ta  Ta36  1  0.33333333  0.06666667  0.19717927  1
  Ta  Ta36  1  0.33333333  0.06666667  0.39717927  1
  Ta  Ta36  1  0.33333333  0.06666667  0.59717927  1
  Ta  Ta36  1  0.33333333  0.06666667  0.79717927  1
  Ta  Ta36  1  0.33333333  0.06666667  0.99717927  1
  Ta  Ta36  1  0.33333333  0.26666667  0.19717927  1
  Ta  Ta36  1  0.33333333  0.26666667  0.39717927  1
  Ta  Ta36  1  0.33333333  0.26666667  0.59717927  1
  Ta  Ta36  1  0.33333333  0.26666667  0.79717927  1
  Ta  Ta36  1  0.33333333  0.26666667  0.99717927  1
  Ta  Ta36  1  0.33333333  0.46666667  0.19717927  1
  Ta  Ta36  1  0.33333333  0.46666667  0.39717927  1
  Ta  Ta36  1  0.33333333  0.46666667  0.59717927  1
  Ta  Ta36  1  0.33333333  0.46666667  0.79717927  1
  Ta  Ta36  1  0.33333333  0.46666667  0.99717927  1
  Ta  Ta36  1  0.33333333  0.66666667  0.19717927  1
  Ta  Ta36  1  0.33333333  0.66666667  0.39717927  1
  Ta  Ta36  1  0.33333333  0.66666667  0.59717927  1
  Ta  Ta36  1  0.33333333  0.66666667  0.79717927  1
  Ta  Ta36  1  0.33333333  0.66666667  0.99717927  1
  Ta  Ta36  1  0.33333333  0.86666667  0.19717927  1
  Ta  Ta36  1  0.33333333  0.86666667  0.39717927  1
  Ta  Ta36  1  0.33333333  0.86666667  0.59717927  1
  Ta  Ta36  1  0.33333333  0.86666667  0.79717927  1
  Ta  Ta36  1  0.33333333  0.86666667  0.99717927  1
  Ta  Ta36  1  0.53333333  0.06666667  0.19717927  1
  Ta  Ta36  1  0.53333333  0.06666667  0.39717927  1
  Ta  Ta36  1  0.53333333  0.06666667  0.59717927  1
  Ta  Ta36  1  0.53333333  0.06666667  0.79717927  1
  Ta  Ta36  1  0.53333333  0.06666667  0.99717927  1
  Ta  Ta36  1  0.53333333  0.26666667  0.19717927  1
  Ta  Ta36  1  0.53333333  0.26666667  0.39717927  1
  Ta  Ta36  1  0.53333333  0.26666667  0.59717927  1
  Ta  Ta36  1  0.53333333  0.26666667  0.79717927  1
  Ta  Ta36  1  0.53333333  0.26666667  0.99717927  1
  Ta  Ta36  1  0.53333333  0.46666667  0.19717927  1
  Ta  Ta36  1  0.53333333  0.46666667  0.39717927  1
  Ta  Ta36  1  0.53333333  0.46666667  0.59717927  1
  Ta  Ta36  1  0.53333333  0.46666667  0.79717927  1
  Ta  Ta36  1  0.53333333  0.46666667  0.99717927  1
  Ta  Ta36  1  0.53333333  0.66666667  0.19717927  1
  Ta  Ta36  1  0.53333333  0.66666667  0.39717927  1
  Ta  Ta36  1  0.53333333  0.66666667  0.59717927  1
  Ta  Ta36  1  0.53333333  0.66666667  0.79717927  1
  Ta  Ta36  1  0.53333333  0.66666667  0.99717927  1
  Ta  Ta36  1  0.53333333  0.86666667  0.19717927  1
  Ta  Ta36  1  0.53333333  0.86666667  0.39717927  1
  Ta  Ta36  1  0.53333333  0.86666667  0.59717927  1
  Ta  Ta36  1  0.53333333  0.86666667  0.79717927  1
  Ta  Ta36  1  0.53333333  0.86666667  0.99717927  1
  Ta  Ta36  1  0.73333333  0.06666667  0.19717927  1
  Ta  Ta36  1  0.73333333  0.06666667  0.39717927  1
  Ta  Ta36  1  0.73333333  0.06666667  0.59717927  1
  Ta  Ta36  1  0.73333333  0.06666667  0.79717927  1
  Ta  Ta36  1  0.73333333  0.06666667  0.99717927  1
  Ta  Ta36  1  0.73333333  0.26666667  0.19717927  1
  Ta  Ta36  1  0.73333333  0.26666667  0.39717927  1
  Ta  Ta36  1  0.73333333  0.26666667  0.59717927  1
  Ta  Ta36  1  0.73333333  0.26666667  0.79717927  1
  Ta  Ta36  1  0.73333333  0.26666667  0.99717927  1
  Ta  Ta36  1  0.73333333  0.46666667  0.19717927  1
  Ta  Ta36  1  0.73333333  0.46666667  0.39717927  1
  Ta  Ta36  1  0.73333333  0.46666667  0.59717927  1
  Ta  Ta36  1  0.73333333  0.46666667  0.79717927  1
  Ta  Ta36  1  0.73333333  0.46666667  0.99717927  1
  Ta  Ta36  1  0.73333333  0.66666667  0.19717927  1
  Ta  Ta36  1  0.73333333  0.66666667  0.39717927  1
  Ta  Ta36  1  0.73333333  0.66666667  0.59717927  1
  Ta  Ta36  1  0.73333333  0.66666667  0.79717927  1
  Ta  Ta36  1  0.73333333  0.66666667  0.99717927  1
  Ta  Ta36  1  0.73333333  0.86666667  0.19717927  1
  Ta  Ta36  1  0.73333333  0.86666667  0.39717927  1
  Ta  Ta36  1  0.73333333  0.86666667  0.59717927  1
  Ta  Ta36  1  0.73333333  0.86666667  0.79717927  1
  Ta  Ta36  1  0.73333333  0.86666667  0.99717927  1
  Ta  Ta36  1  0.93333333  0.06666667  0.19717927  1
  Ta  Ta36  1  0.93333333  0.06666667  0.39717927  1
  Ta  Ta36  1  0.93333333  0.06666667  0.59717927  1
  Ta  Ta36  1  0.93333333  0.06666667  0.79717927  1
  Ta  Ta36  1  0.93333333  0.06666667  0.99717927  1
  Ta  Ta36  1  0.93333333  0.26666667  0.19717927  1
  Ta  Ta36  1  0.93333333  0.26666667  0.39717927  1
  Ta  Ta36  1  0.93333333  0.26666667  0.59717927  1
  Ta  Ta36  1  0.93333333  0.26666667  0.79717927  1
  Ta  Ta36  1  0.93333333  0.26666667  0.99717927  1
  Ta  Ta36  1  0.93333333  0.46666667  0.19717927  1
  Ta  Ta36  1  0.93333333  0.46666667  0.39717927  1
  Ta  Ta36  1  0.93333333  0.46666667  0.59717927  1
  Ta  Ta36  1  0.93333333  0.46666667  0.79717927  1
  Ta  Ta36  1  0.93333333  0.46666667  0.99717927  1
  Ta  Ta36  1  0.93333333  0.66666667  0.19717927  1
  Ta  Ta36  1  0.93333333  0.66666667  0.39717927  1
  Ta  Ta36  1  0.93333333  0.66666667  0.59717927  1
  Ta  Ta36  1  0.93333333  0.66666667  0.79717927  1
  Ta  Ta36  1  0.93333333  0.66666667  0.99717927  1
  Ta  Ta36  1  0.93333333  0.86666667  0.19717927  1
  Ta  Ta36  1  0.93333333  0.86666667  0.39717927  1
  Ta  Ta36  1  0.93333333  0.86666667  0.59717927  1
  Ta  Ta36  1  0.93333333  0.86666667  0.79717927  1
  Ta  Ta36  1  0.93333333  0.86666667  0.99717927  1
  Ta  Ta37  1  0.13333333  0.06666667  0.15674067  1
  Ta  Ta37  1  0.13333333  0.06666667  0.35674067  1
  Ta  Ta37  1  0.13333333  0.06666667  0.55674067  1
  Ta  Ta37  1  0.13333333  0.06666667  0.75674067  1
  Ta  Ta37  1  0.13333333  0.06666667  0.95674067  1
  Ta  Ta37  1  0.13333333  0.26666667  0.15674067  1
  Ta  Ta37  1  0.13333333  0.26666667  0.35674067  1
  Ta  Ta37  1  0.13333333  0.26666667  0.55674067  1
  Ta  Ta37  1  0.13333333  0.26666667  0.75674067  1
  Ta  Ta37  1  0.13333333  0.26666667  0.95674067  1
  Ta  Ta37  1  0.13333333  0.46666667  0.15674067  1
  Ta  Ta37  1  0.13333333  0.46666667  0.35674067  1
  Ta  Ta37  1  0.13333333  0.46666667  0.55674067  1
  Ta  Ta37  1  0.13333333  0.46666667  0.75674067  1
  Ta  Ta37  1  0.13333333  0.46666667  0.95674067  1
  Ta  Ta37  1  0.13333333  0.66666667  0.15674067  1
  Ta  Ta37  1  0.13333333  0.66666667  0.35674067  1
  Ta  Ta37  1  0.13333333  0.66666667  0.55674067  1
  Ta  Ta37  1  0.13333333  0.66666667  0.75674067  1
  Ta  Ta37  1  0.13333333  0.66666667  0.95674067  1
  Ta  Ta37  1  0.13333333  0.86666667  0.15674067  1
  Ta  Ta37  1  0.13333333  0.86666667  0.35674067  1
  Ta  Ta37  1  0.13333333  0.86666667  0.55674067  1
  Ta  Ta37  1  0.13333333  0.86666667  0.75674067  1
  Ta  Ta37  1  0.13333333  0.86666667  0.95674067  1
  Ta  Ta37  1  0.33333333  0.06666667  0.15674067  1
  Ta  Ta37  1  0.33333333  0.06666667  0.35674067  1
  Ta  Ta37  1  0.33333333  0.06666667  0.55674067  1
  Ta  Ta37  1  0.33333333  0.06666667  0.75674067  1
  Ta  Ta37  1  0.33333333  0.06666667  0.95674067  1
  Ta  Ta37  1  0.33333333  0.26666667  0.15674067  1
  Ta  Ta37  1  0.33333333  0.26666667  0.35674067  1
  Ta  Ta37  1  0.33333333  0.26666667  0.55674067  1
  Ta  Ta37  1  0.33333333  0.26666667  0.75674067  1
  Ta  Ta37  1  0.33333333  0.26666667  0.95674067  1
  Ta  Ta37  1  0.33333333  0.46666667  0.15674067  1
  Ta  Ta37  1  0.33333333  0.46666667  0.35674067  1
  Ta  Ta37  1  0.33333333  0.46666667  0.55674067  1
  Ta  Ta37  1  0.33333333  0.46666667  0.75674067  1
  Ta  Ta37  1  0.33333333  0.46666667  0.95674067  1
  Ta  Ta37  1  0.33333333  0.66666667  0.15674067  1
  Ta  Ta37  1  0.33333333  0.66666667  0.35674067  1
  Ta  Ta37  1  0.33333333  0.66666667  0.55674067  1
  Ta  Ta37  1  0.33333333  0.66666667  0.75674067  1
  Ta  Ta37  1  0.33333333  0.66666667  0.95674067  1
  Ta  Ta37  1  0.33333333  0.86666667  0.15674067  1
  Ta  Ta37  1  0.33333333  0.86666667  0.35674067  1
  Ta  Ta37  1  0.33333333  0.86666667  0.55674067  1
  Ta  Ta37  1  0.33333333  0.86666667  0.75674067  1
  Ta  Ta37  1  0.33333333  0.86666667  0.95674067  1
  Ta  Ta37  1  0.53333333  0.06666667  0.15674067  1
  Ta  Ta37  1  0.53333333  0.06666667  0.35674067  1
  Ta  Ta37  1  0.53333333  0.06666667  0.55674067  1
  Ta  Ta37  1  0.53333333  0.06666667  0.75674067  1
  Ta  Ta37  1  0.53333333  0.06666667  0.95674067  1
  Ta  Ta37  1  0.53333333  0.26666667  0.15674067  1
  Ta  Ta37  1  0.53333333  0.26666667  0.35674067  1
  Ta  Ta37  1  0.53333333  0.26666667  0.55674067  1
  Ta  Ta37  1  0.53333333  0.26666667  0.75674067  1
  Ta  Ta37  1  0.53333333  0.26666667  0.95674067  1
  Ta  Ta37  1  0.53333333  0.46666667  0.15674067  1
  Ta  Ta37  1  0.53333333  0.46666667  0.35674067  1
  Ta  Ta37  1  0.53333333  0.46666667  0.55674067  1
  Ta  Ta37  1  0.53333333  0.46666667  0.75674067  1
  Ta  Ta37  1  0.53333333  0.46666667  0.95674067  1
  Ta  Ta37  1  0.53333333  0.66666667  0.15674067  1
  Ta  Ta37  1  0.53333333  0.66666667  0.35674067  1
  Ta  Ta37  1  0.53333333  0.66666667  0.55674067  1
  Ta  Ta37  1  0.53333333  0.66666667  0.75674067  1
  Ta  Ta37  1  0.53333333  0.66666667  0.95674067  1
  Ta  Ta37  1  0.53333333  0.86666667  0.15674067  1
  Ta  Ta37  1  0.53333333  0.86666667  0.35674067  1
  Ta  Ta37  1  0.53333333  0.86666667  0.55674067  1
  Ta  Ta37  1  0.53333333  0.86666667  0.75674067  1
  Ta  Ta37  1  0.53333333  0.86666667  0.95674067  1
  Ta  Ta37  1  0.73333333  0.06666667  0.15674067  1
  Ta  Ta37  1  0.73333333  0.06666667  0.35674067  1
  Ta  Ta37  1  0.73333333  0.06666667  0.55674067  1
  Ta  Ta37  1  0.73333333  0.06666667  0.75674067  1
  Ta  Ta37  1  0.73333333  0.06666667  0.95674067  1
  Ta  Ta37  1  0.73333333  0.26666667  0.15674067  1
  Ta  Ta37  1  0.73333333  0.26666667  0.35674067  1
  Ta  Ta37  1  0.73333333  0.26666667  0.55674067  1
  Ta  Ta37  1  0.73333333  0.26666667  0.75674067  1
  Ta  Ta37  1  0.73333333  0.26666667  0.95674067  1
  Ta  Ta37  1  0.73333333  0.46666667  0.15674067  1
  Ta  Ta37  1  0.73333333  0.46666667  0.35674067  1
  Ta  Ta37  1  0.73333333  0.46666667  0.55674067  1
  Ta  Ta37  1  0.73333333  0.46666667  0.75674067  1
  Ta  Ta37  1  0.73333333  0.46666667  0.95674067  1
  Ta  Ta37  1  0.73333333  0.66666667  0.15674067  1
  Ta  Ta37  1  0.73333333  0.66666667  0.35674067  1
  Ta  Ta37  1  0.73333333  0.66666667  0.55674067  1
  Ta  Ta37  1  0.73333333  0.66666667  0.75674067  1
  Ta  Ta37  1  0.73333333  0.66666667  0.95674067  1
  Ta  Ta37  1  0.73333333  0.86666667  0.15674067  1
  Ta  Ta37  1  0.73333333  0.86666667  0.35674067  1
  Ta  Ta37  1  0.73333333  0.86666667  0.55674067  1
  Ta  Ta37  1  0.73333333  0.86666667  0.75674067  1
  Ta  Ta37  1  0.73333333  0.86666667  0.95674067  1
  Ta  Ta37  1  0.93333333  0.06666667  0.15674067  1
  Ta  Ta37  1  0.93333333  0.06666667  0.35674067  1
  Ta  Ta37  1  0.93333333  0.06666667  0.55674067  1
  Ta  Ta37  1  0.93333333  0.06666667  0.75674067  1
  Ta  Ta37  1  0.93333333  0.06666667  0.95674067  1
  Ta  Ta37  1  0.93333333  0.26666667  0.15674067  1
  Ta  Ta37  1  0.93333333  0.26666667  0.35674067  1
  Ta  Ta37  1  0.93333333  0.26666667  0.55674067  1
  Ta  Ta37  1  0.93333333  0.26666667  0.75674067  1
  Ta  Ta37  1  0.93333333  0.26666667  0.95674067  1
  Ta  Ta37  1  0.93333333  0.46666667  0.15674067  1
  Ta  Ta37  1  0.93333333  0.46666667  0.35674067  1
  Ta  Ta37  1  0.93333333  0.46666667  0.55674067  1
  Ta  Ta37  1  0.93333333  0.46666667  0.75674067  1
  Ta  Ta37  1  0.93333333  0.46666667  0.95674067  1
  Ta  Ta37  1  0.93333333  0.66666667  0.15674067  1
  Ta  Ta37  1  0.93333333  0.66666667  0.35674067  1
  Ta  Ta37  1  0.93333333  0.66666667  0.55674067  1
  Ta  Ta37  1  0.93333333  0.66666667  0.75674067  1
  Ta  Ta37  1  0.93333333  0.66666667  0.95674067  1
  Ta  Ta37  1  0.93333333  0.86666667  0.15674067  1
  Ta  Ta37  1  0.93333333  0.86666667  0.35674067  1
  Ta  Ta37  1  0.93333333  0.86666667  0.55674067  1
  Ta  Ta37  1  0.93333333  0.86666667  0.75674067  1
  Ta  Ta37  1  0.93333333  0.86666667  0.95674067  1
  Ta  Ta38  1  0.13333333  0.06666667  0.17659267  1
  Ta  Ta38  1  0.13333333  0.06666667  0.37659267  1
  Ta  Ta38  1  0.13333333  0.06666667  0.57659267  1
  Ta  Ta38  1  0.13333333  0.06666667  0.77659267  1
  Ta  Ta38  1  0.13333333  0.06666667  0.97659267  1
  Ta  Ta38  1  0.13333333  0.26666667  0.17659267  1
  Ta  Ta38  1  0.13333333  0.26666667  0.37659267  1
  Ta  Ta38  1  0.13333333  0.26666667  0.57659267  1
  Ta  Ta38  1  0.13333333  0.26666667  0.77659267  1
  Ta  Ta38  1  0.13333333  0.26666667  0.97659267  1
  Ta  Ta38  1  0.13333333  0.46666667  0.17659267  1
  Ta  Ta38  1  0.13333333  0.46666667  0.37659267  1
  Ta  Ta38  1  0.13333333  0.46666667  0.57659267  1
  Ta  Ta38  1  0.13333333  0.46666667  0.77659267  1
  Ta  Ta38  1  0.13333333  0.46666667  0.97659267  1
  Ta  Ta38  1  0.13333333  0.66666667  0.17659267  1
  Ta  Ta38  1  0.13333333  0.66666667  0.37659267  1
  Ta  Ta38  1  0.13333333  0.66666667  0.57659267  1
  Ta  Ta38  1  0.13333333  0.66666667  0.77659267  1
  Ta  Ta38  1  0.13333333  0.66666667  0.97659267  1
  Ta  Ta38  1  0.13333333  0.86666667  0.17659267  1
  Ta  Ta38  1  0.13333333  0.86666667  0.37659267  1
  Ta  Ta38  1  0.13333333  0.86666667  0.57659267  1
  Ta  Ta38  1  0.13333333  0.86666667  0.77659267  1
  Ta  Ta38  1  0.13333333  0.86666667  0.97659267  1
  Ta  Ta38  1  0.33333333  0.06666667  0.17659267  1
  Ta  Ta38  1  0.33333333  0.06666667  0.37659267  1
  Ta  Ta38  1  0.33333333  0.06666667  0.57659267  1
  Ta  Ta38  1  0.33333333  0.06666667  0.77659267  1
  Ta  Ta38  1  0.33333333  0.06666667  0.97659267  1
  Ta  Ta38  1  0.33333333  0.26666667  0.17659267  1
  Ta  Ta38  1  0.33333333  0.26666667  0.37659267  1
  Ta  Ta38  1  0.33333333  0.26666667  0.57659267  1
  Ta  Ta38  1  0.33333333  0.26666667  0.77659267  1
  Ta  Ta38  1  0.33333333  0.26666667  0.97659267  1
  Ta  Ta38  1  0.33333333  0.46666667  0.17659267  1
  Ta  Ta38  1  0.33333333  0.46666667  0.37659267  1
  Ta  Ta38  1  0.33333333  0.46666667  0.57659267  1
  Ta  Ta38  1  0.33333333  0.46666667  0.77659267  1
  Ta  Ta38  1  0.33333333  0.46666667  0.97659267  1
  Ta  Ta38  1  0.33333333  0.66666667  0.17659267  1
  Ta  Ta38  1  0.33333333  0.66666667  0.37659267  1
  Ta  Ta38  1  0.33333333  0.66666667  0.57659267  1
  Ta  Ta38  1  0.33333333  0.66666667  0.77659267  1
  Ta  Ta38  1  0.33333333  0.66666667  0.97659267  1
  Ta  Ta38  1  0.33333333  0.86666667  0.17659267  1
  Ta  Ta38  1  0.33333333  0.86666667  0.37659267  1
  Ta  Ta38  1  0.33333333  0.86666667  0.57659267  1
  Ta  Ta38  1  0.33333333  0.86666667  0.77659267  1
  Ta  Ta38  1  0.33333333  0.86666667  0.97659267  1
  Ta  Ta38  1  0.53333333  0.06666667  0.17659267  1
  Ta  Ta38  1  0.53333333  0.06666667  0.37659267  1
  Ta  Ta38  1  0.53333333  0.06666667  0.57659267  1
  Ta  Ta38  1  0.53333333  0.06666667  0.77659267  1
  Ta  Ta38  1  0.53333333  0.06666667  0.97659267  1
  Ta  Ta38  1  0.53333333  0.26666667  0.17659267  1
  Ta  Ta38  1  0.53333333  0.26666667  0.37659267  1
  Ta  Ta38  1  0.53333333  0.26666667  0.57659267  1
  Ta  Ta38  1  0.53333333  0.26666667  0.77659267  1
  Ta  Ta38  1  0.53333333  0.26666667  0.97659267  1
  Ta  Ta38  1  0.53333333  0.46666667  0.17659267  1
  Ta  Ta38  1  0.53333333  0.46666667  0.37659267  1
  Ta  Ta38  1  0.53333333  0.46666667  0.57659267  1
  Ta  Ta38  1  0.53333333  0.46666667  0.77659267  1
  Ta  Ta38  1  0.53333333  0.46666667  0.97659267  1
  Ta  Ta38  1  0.53333333  0.66666667  0.17659267  1
  Ta  Ta38  1  0.53333333  0.66666667  0.37659267  1
  Ta  Ta38  1  0.53333333  0.66666667  0.57659267  1
  Ta  Ta38  1  0.53333333  0.66666667  0.77659267  1
  Ta  Ta38  1  0.53333333  0.66666667  0.97659267  1
  Ta  Ta38  1  0.53333333  0.86666667  0.17659267  1
  Ta  Ta38  1  0.53333333  0.86666667  0.37659267  1
  Ta  Ta38  1  0.53333333  0.86666667  0.57659267  1
  Ta  Ta38  1  0.53333333  0.86666667  0.77659267  1
  Ta  Ta38  1  0.53333333  0.86666667  0.97659267  1
  Ta  Ta38  1  0.73333333  0.06666667  0.17659267  1
  Ta  Ta38  1  0.73333333  0.06666667  0.37659267  1
  Ta  Ta38  1  0.73333333  0.06666667  0.57659267  1
  Ta  Ta38  1  0.73333333  0.06666667  0.77659267  1
  Ta  Ta38  1  0.73333333  0.06666667  0.97659267  1
  Ta  Ta38  1  0.73333333  0.26666667  0.17659267  1
  Ta  Ta38  1  0.73333333  0.26666667  0.37659267  1
  Ta  Ta38  1  0.73333333  0.26666667  0.57659267  1
  Ta  Ta38  1  0.73333333  0.26666667  0.77659267  1
  Ta  Ta38  1  0.73333333  0.26666667  0.97659267  1
  Ta  Ta38  1  0.73333333  0.46666667  0.17659267  1
  Ta  Ta38  1  0.73333333  0.46666667  0.37659267  1
  Ta  Ta38  1  0.73333333  0.46666667  0.57659267  1
  Ta  Ta38  1  0.73333333  0.46666667  0.77659267  1
  Ta  Ta38  1  0.73333333  0.46666667  0.97659267  1
  Ta  Ta38  1  0.73333333  0.66666667  0.17659267  1
  Ta  Ta38  1  0.73333333  0.66666667  0.37659267  1
  Ta  Ta38  1  0.73333333  0.66666667  0.57659267  1
  Ta  Ta38  1  0.73333333  0.66666667  0.77659267  1
  Ta  Ta38  1  0.73333333  0.66666667  0.97659267  1
  Ta  Ta38  1  0.73333333  0.86666667  0.17659267  1
  Ta  Ta38  1  0.73333333  0.86666667  0.37659267  1
  Ta  Ta38  1  0.73333333  0.86666667  0.57659267  1
  Ta  Ta38  1  0.73333333  0.86666667  0.77659267  1
  Ta  Ta38  1  0.73333333  0.86666667  0.97659267  1
  Ta  Ta38  1  0.93333333  0.06666667  0.17659267  1
  Ta  Ta38  1  0.93333333  0.06666667  0.37659267  1
  Ta  Ta38  1  0.93333333  0.06666667  0.57659267  1
  Ta  Ta38  1  0.93333333  0.06666667  0.77659267  1
  Ta  Ta38  1  0.93333333  0.06666667  0.97659267  1
  Ta  Ta38  1  0.93333333  0.26666667  0.17659267  1
  Ta  Ta38  1  0.93333333  0.26666667  0.37659267  1
  Ta  Ta38  1  0.93333333  0.26666667  0.57659267  1
  Ta  Ta38  1  0.93333333  0.26666667  0.77659267  1
  Ta  Ta38  1  0.93333333  0.26666667  0.97659267  1
  Ta  Ta38  1  0.93333333  0.46666667  0.17659267  1
  Ta  Ta38  1  0.93333333  0.46666667  0.37659267  1
  Ta  Ta38  1  0.93333333  0.46666667  0.57659267  1
  Ta  Ta38  1  0.93333333  0.46666667  0.77659267  1
  Ta  Ta38  1  0.93333333  0.46666667  0.97659267  1
  Ta  Ta38  1  0.93333333  0.66666667  0.17659267  1
  Ta  Ta38  1  0.93333333  0.66666667  0.37659267  1
  Ta  Ta38  1  0.93333333  0.66666667  0.57659267  1
  Ta  Ta38  1  0.93333333  0.66666667  0.77659267  1
  Ta  Ta38  1  0.93333333  0.66666667  0.97659267  1
  Ta  Ta38  1  0.93333333  0.86666667  0.17659267  1
  Ta  Ta38  1  0.93333333  0.86666667  0.37659267  1
  Ta  Ta38  1  0.93333333  0.86666667  0.57659267  1
  Ta  Ta38  1  0.93333333  0.86666667  0.77659267  1
  Ta  Ta38  1  0.93333333  0.86666667  0.97659267  1
